                                  MODFLOW-NWT-SWR1 
      U.S. GEOLOGICAL SURVEY MODULAR FINITE-DIFFERENCE GROUNDWATER-FLOW MODEL
                            VERSION 1.3.0 07/01/2022
                    BASED ON MODFLOW-2005 VERSION 1.12.00 02/03/2017

 LIST FILE: incised.list
                         UNIT    2

 OPENING incised.dis
 FILE TYPE:DIS   UNIT   11   STATUS:OLD    
 FORMAT:FORMATTED              ACCESS:SEQUENTIAL          

 OPENING incised.upw
 FILE TYPE:UPW   UNIT   31   STATUS:OLD    
 FORMAT:FORMATTED              ACCESS:SEQUENTIAL          

 OPENING incised.bas
 FILE TYPE:BAS6   UNIT   13   STATUS:OLD    
 FORMAT:FORMATTED              ACCESS:SEQUENTIAL          

 OPENING incised.chd
 FILE TYPE:CHD   UNIT   24   STATUS:OLD    
 FORMAT:FORMATTED              ACCESS:SEQUENTIAL          

 OPENING incised.nwt
 FILE TYPE:NWT   UNIT   32   STATUS:OLD    
 FORMAT:FORMATTED              ACCESS:SEQUENTIAL          

 OPENING incised.oc
 FILE TYPE:OC   UNIT   14   STATUS:OLD    
 FORMAT:FORMATTED              ACCESS:SEQUENTIAL          

 OPENING incised.lmt6
 FILE TYPE:LMT6   UNIT   30   STATUS:OLD    
 FORMAT:FORMATTED              ACCESS:SEQUENTIAL          

 OPENING incised.cbc
 FILE TYPE:DATA(BINARY)   UNIT   53   STATUS:REPLACE
 FORMAT:BINARY                 ACCESS:SEQUENTIAL          

 OPENING incised.hds
 FILE TYPE:DATA(BINARY)   UNIT   51   STATUS:REPLACE
 FORMAT:BINARY                 ACCESS:SEQUENTIAL          

 OPENING incised.ddn
 FILE TYPE:DATA(BINARY)   UNIT   52   STATUS:REPLACE
 FORMAT:BINARY                 ACCESS:SEQUENTIAL          

 BAS -- BASIC PACKAGE, VERSION 1.3.0, 7/01/2022 INPUT READ FROM UNIT   13
 
 MODFLOW was compiled using mixed precision
 Precision of REAL variables:           6
 Precision of DOUBLE PRECISION variables:          15

 DISCRETIZATION INPUT DATA READ FROM UNIT   11
 # DIS package for MODFLOW-NWT generated by Flopy 3.3.5
    3 LAYERS        91 ROWS       182 COLUMNS
    1 STRESS PERIOD(S) IN SIMULATION
 MODEL TIME UNIT IS DAYS
 MODEL LENGTH UNIT IS METERS
  Confining bed flag for each layer:
   0   0   0

                     DELR =   43.5165    

                     DELC =   43.5165    

 TOP ELEVATION OF LAYER 1 =   200.000    



             MODEL LAYER BOTTOM EL. FOR LAYER   1
 READING ON UNIT   11 WITH FORMAT: (182E15.6)          



             MODEL LAYER BOTTOM EL. FOR LAYER   2
 READING ON UNIT   11 WITH FORMAT: (182E15.6)          



             MODEL LAYER BOTTOM EL. FOR LAYER   3
 READING ON UNIT   11 WITH FORMAT: (182E15.6)          


 STRESS PERIOD     LENGTH       TIME STEPS     MULTIPLIER FOR DELT    SS FLAG
 ----------------------------------------------------------------------------
        1        1.0000000E+08      1                    1.000         SS

 STEADY-STATE SIMULATION



 
 # BAS6 package for MODFLOW-NWT generated by Flopy 3.3.5                         
 THE FREE FORMAT OPTION HAS BEEN SELECTED



                     BOUNDARY ARRAY FOR LAYER   1
 READING ON UNIT   13 WITH FORMAT: (182I10)            



                     BOUNDARY ARRAY FOR LAYER   2
 READING ON UNIT   13 WITH FORMAT: (182I10)            



                     BOUNDARY ARRAY FOR LAYER   3
 READING ON UNIT   13 WITH FORMAT: (182I10)            

 AQUIFER HEAD WILL BE SET TO  -999.99     AT ALL NO-FLOW NODES (IBOUND=0).



                       INITIAL HEAD FOR LAYER   1
 READING ON UNIT   13 WITH FORMAT: (182E15.6)          



                       INITIAL HEAD FOR LAYER   2
 READING ON UNIT   13 WITH FORMAT: (182E15.6)          



                       INITIAL HEAD FOR LAYER   3
 READING ON UNIT   13 WITH FORMAT: (182E15.6)          
 # OC package for MODFLOW-NWT generated by Flopy 3.3.5

 OUTPUT CONTROL IS SPECIFIED ONLY AT TIME STEPS FOR WHICH OUTPUT IS DESIRED
 COMPACT CELL-BY-CELL BUDGET FILES WILL BE WRITTEN
 AUXILIARY DATA WILL BE SAVED IN CELL-BY-CELL BUDGET FILES
 HEAD PRINT FORMAT CODE IS   0    DRAWDOWN PRINT FORMAT CODE IS   0
 HEADS WILL BE SAVED ON UNIT   51    DRAWDOWNS WILL BE SAVED ON UNIT   52
 # NWT package for MODFLOW-NWT generated by Flopy 3.3.5

 NWT1 -- Newton Solver, VERSION 1.3.0, 7/01/2022
         INPUT READ FROM UNIT 32

 COMPLEX OPTION:
 DEFAULT SOLVER INPUT VALUES REFLECT STRONGLY NONLINEAR MODEL
 ***GMRES linear solver will be used***
 
   CONVERGENCE CRITERION OF   0.100000E-01 FOR HEAD SOLUTION
   AND A TOLERANCE OF   0.500000E+03 FOR FLOW SOLUTION AND 
   A MAXIMUM OF   100 OUTER ITERATIONS. 


   D-B-D REDUCTION FACTOR OF    0.850000E+00 AND 
   A D-B-D INCREASE FACTOR OF    0.100000E-04 AND 
   A D-B-D RELAXATION OF    0.000000E+00 AND 
   A MOMENTUM FACTOR OF    0.100000E+00 .


   BACKTRACKING IS ACTIVE 
   THE MAXIMUM NUMBER OF BACKTRACKS IS    50 AND 
   THE BACKTRACKING TOLERANCE IS    0.110000E+01 AND
   THE BACKTRACKING REDUCTION FACTOR IS    0.700000E+00

 GMRES -- LINEAR SOLUTION BY GMRES PACKAGE 
     adapted for HYDROTHERM by Kipp and others (2008)
     using software originally developed by Saad (1990) 32
     using algorithms described in Saad (2003)

 UPW1 -- UPSTREAM WEIGHTING FLOW PACKAGE, VERSION 1.3.0, 7/01/2022
         INPUT READ FROM UNIT 31

 # UPW package for MODFLOW-NWT generated by Flopy 3.3.5
 CELL-BY-CELL FLOWS WILL BE SAVED ON UNIT   53
 No named parameters

   LAYER FLAGS:
 LAYER       LAYTYP          LAYAVG    CHANI           LAYVKA           LAYWET
 ---------------------------------------------------------------------------
    1             1             0     1.000E+00             0             0
    2             1             0     1.000E+00             0             0
    3             1             0     1.000E+00             0             0

   INTERPRETATION OF LAYER FLAGS:
                        INTERBLOCK     HORIZONTAL    DATA IN
         LAYER TYPE   TRANSMISSIVITY   ANISOTROPY   ARRAY VKA   WETTABILITY
 LAYER   (LAYTYP)        (LAYAVG)      (CHANI)     (LAYVKA)       (LAYWET)
 ---------------------------------------------------------------------------
    1   CONVERTIBLE      HARMONIC     1.000E+00    VERTICAL K  NON-WETTABLE
    2   CONVERTIBLE      HARMONIC     1.000E+00    VERTICAL K  NON-WETTABLE
    3   CONVERTIBLE      HARMONIC     1.000E+00    VERTICAL K  NON-WETTABLE



              HYD. COND. ALONG ROWS FOR LAYER   1
 READING ON UNIT   31 WITH FORMAT: (182E15.6)          



                VERTICAL HYD. COND. FOR LAYER   1
 READING ON UNIT   31 WITH FORMAT: (182E15.6)          



              HYD. COND. ALONG ROWS FOR LAYER   2
 READING ON UNIT   31 WITH FORMAT: (182E15.6)          



                VERTICAL HYD. COND. FOR LAYER   2
 READING ON UNIT   31 WITH FORMAT: (182E15.6)          



              HYD. COND. ALONG ROWS FOR LAYER   3
 READING ON UNIT   31 WITH FORMAT: (182E15.6)          



                VERTICAL HYD. COND. FOR LAYER   3
 READING ON UNIT   31 WITH FORMAT: (182E15.6)          

 CHD -- TIME-VARIANT SPECIFIED-HEAD OPTION, VERSION 7, 5/2/2005
 INPUT READ FROM UNIT   24
 # CHD package for MODFLOW-NWT generated by Flopy 3.3.5
 No named parameters
 MAXIMUM OF    364 TIME-VARIANT SPECIFIED-HEAD CELLS AT ONE TIME


     0 TIME-VARIANT SPECIFIED-HEAD PARAMETERS


 ***Link-MT3DMS Package v7***
 OPENING LINK-MT3DMS OUTPUT FILE: mt3d_link.ftl                                                                                                                                                                                           
 ON UNIT NUMBER:    54
 FILE TYPE: UNFORMATTED
 HEADER OPTION: EXTENDED
 ***Link-MT3DMS Package v7***

1
                            STRESS PERIOD NO.    1, LENGTH =  0.1000000E+09
                            -----------------------------------------------

                              NUMBER OF TIME STEPS =     1

                               MULTIPLIER FOR DELT =     1.000

                            INITIAL TIME STEP SIZE =  0.1000000E+09

 CHD NO.   LAYER   ROW   COL    START HEAD        END HEAD         
 ------------------------------------------------------------------
      1      2      1      1       138.0           138.0    
      2      2      2      1       138.0           138.0    
      3      2      3      1       138.0           138.0    
      4      2      4      1       138.0           138.0    
      5      2      5      1       138.0           138.0    
      6      2      6      1       138.0           138.0    
      7      2      7      1       138.0           138.0    
      8      2      8      1       138.0           138.0    
      9      2      9      1       138.0           138.0    
     10      2     10      1       138.0           138.0    
     11      2     11      1       138.0           138.0    
     12      2     12      1       138.0           138.0    
     13      2     13      1       138.0           138.0    
     14      2     14      1       138.0           138.0    
     15      2     15      1       138.0           138.0    
     16      2     16      1       138.0           138.0    
     17      2     17      1       138.0           138.0    
     18      2     18      1       138.0           138.0    
     19      2     19      1       138.0           138.0    
     20      2     20      1       138.0           138.0    
     21      2     21      1       138.0           138.0    
     22      2     22      1       138.0           138.0    
     23      2     23      1       138.0           138.0    
     24      2     24      1       138.0           138.0    
     25      2     25      1       138.0           138.0    
     26      2     26      1       138.0           138.0    
     27      2     27      1       138.0           138.0    
     28      2     28      1       138.0           138.0    
     29      2     29      1       138.0           138.0    
     30      2     30      1       138.0           138.0    
     31      2     31      1       138.0           138.0    
     32      2     32      1       138.0           138.0    
     33      2     33      1       138.0           138.0    
     34      2     34      1       138.0           138.0    
     35      2     35      1       138.0           138.0    
     36      2     36      1       138.0           138.0    
     37      2     37      1       138.0           138.0    
     38      2     38      1       138.0           138.0    
     39      2     39      1       138.0           138.0    
     40      2     40      1       138.0           138.0    
     41      2     41      1       138.0           138.0    
     42      2     42      1       138.0           138.0    
     43      2     43      1       138.0           138.0    
     44      2     44      1       138.0           138.0    
     45      2     45      1       138.0           138.0    
     46      2     46      1       138.0           138.0    
     47      2     47      1       138.0           138.0    
     48      2     48      1       138.0           138.0    
     49      2     49      1       138.0           138.0    
     50      2     50      1       138.0           138.0    
     51      2     51      1       138.0           138.0    
     52      2     52      1       138.0           138.0    
     53      2     53      1       138.0           138.0    
     54      2     54      1       138.0           138.0    
     55      2     55      1       138.0           138.0    
     56      2     56      1       138.0           138.0    
     57      2     57      1       138.0           138.0    
     58      2     58      1       138.0           138.0    
     59      2     59      1       138.0           138.0    
     60      2     60      1       138.0           138.0    
     61      2     61      1       138.0           138.0    
     62      2     62      1       138.0           138.0    
     63      2     63      1       138.0           138.0    
     64      2     64      1       138.0           138.0    
     65      2     65      1       138.0           138.0    
     66      2     66      1       138.0           138.0    
     67      2     67      1       138.0           138.0    
     68      2     68      1       138.0           138.0    
     69      2     69      1       138.0           138.0    
     70      2     70      1       138.0           138.0    
     71      2     71      1       138.0           138.0    
     72      2     72      1       138.0           138.0    
     73      2     73      1       138.0           138.0    
     74      2     74      1       138.0           138.0    
     75      2     75      1       138.0           138.0    
     76      2     76      1       138.0           138.0    
     77      2     77      1       138.0           138.0    
     78      2     78      1       138.0           138.0    
     79      2     79      1       138.0           138.0    
     80      2     80      1       138.0           138.0    
     81      2     81      1       138.0           138.0    
     82      2     82      1       138.0           138.0    
     83      2     83      1       138.0           138.0    
     84      2     84      1       138.0           138.0    
     85      2     85      1       138.0           138.0    
     86      2     86      1       138.0           138.0    
     87      2     87      1       138.0           138.0    
     88      2     88      1       138.0           138.0    
     89      2     89      1       138.0           138.0    
     90      2     90      1       138.0           138.0    
     91      2     91      1       138.0           138.0    
     92      3      1      1       138.0           138.0    
     93      3      2      1       138.0           138.0    
     94      3      3      1       138.0           138.0    
     95      3      4      1       138.0           138.0    
     96      3      5      1       138.0           138.0    
     97      3      6      1       138.0           138.0    
     98      3      7      1       138.0           138.0    
     99      3      8      1       138.0           138.0    
    100      3      9      1       138.0           138.0    
    101      3     10      1       138.0           138.0    
    102      3     11      1       138.0           138.0    
    103      3     12      1       138.0           138.0    
    104      3     13      1       138.0           138.0    
    105      3     14      1       138.0           138.0    
    106      3     15      1       138.0           138.0    
    107      3     16      1       138.0           138.0    
    108      3     17      1       138.0           138.0    
    109      3     18      1       138.0           138.0    
    110      3     19      1       138.0           138.0    
    111      3     20      1       138.0           138.0    
    112      3     21      1       138.0           138.0    
    113      3     22      1       138.0           138.0    
    114      3     23      1       138.0           138.0    
    115      3     24      1       138.0           138.0    
    116      3     25      1       138.0           138.0    
    117      3     26      1       138.0           138.0    
    118      3     27      1       138.0           138.0    
    119      3     28      1       138.0           138.0    
    120      3     29      1       138.0           138.0    
    121      3     30      1       138.0           138.0    
    122      3     31      1       138.0           138.0    
    123      3     32      1       138.0           138.0    
    124      3     33      1       138.0           138.0    
    125      3     34      1       138.0           138.0    
    126      3     35      1       138.0           138.0    
    127      3     36      1       138.0           138.0    
    128      3     37      1       138.0           138.0    
    129      3     38      1       138.0           138.0    
    130      3     39      1       138.0           138.0    
    131      3     40      1       138.0           138.0    
    132      3     41      1       138.0           138.0    
    133      3     42      1       138.0           138.0    
    134      3     43      1       138.0           138.0    
    135      3     44      1       138.0           138.0    
    136      3     45      1       138.0           138.0    
    137      3     46      1       138.0           138.0    
    138      3     47      1       138.0           138.0    
    139      3     48      1       138.0           138.0    
    140      3     49      1       138.0           138.0    
    141      3     50      1       138.0           138.0    
    142      3     51      1       138.0           138.0    
    143      3     52      1       138.0           138.0    
    144      3     53      1       138.0           138.0    
    145      3     54      1       138.0           138.0    
    146      3     55      1       138.0           138.0    
    147      3     56      1       138.0           138.0    
    148      3     57      1       138.0           138.0    
    149      3     58      1       138.0           138.0    
    150      3     59      1       138.0           138.0    
    151      3     60      1       138.0           138.0    
    152      3     61      1       138.0           138.0    
    153      3     62      1       138.0           138.0    
    154      3     63      1       138.0           138.0    
    155      3     64      1       138.0           138.0    
    156      3     65      1       138.0           138.0    
    157      3     66      1       138.0           138.0    
    158      3     67      1       138.0           138.0    
    159      3     68      1       138.0           138.0    
    160      3     69      1       138.0           138.0    
    161      3     70      1       138.0           138.0    
    162      3     71      1       138.0           138.0    
    163      3     72      1       138.0           138.0    
    164      3     73      1       138.0           138.0    
    165      3     74      1       138.0           138.0    
    166      3     75      1       138.0           138.0    
    167      3     76      1       138.0           138.0    
    168      3     77      1       138.0           138.0    
    169      3     78      1       138.0           138.0    
    170      3     79      1       138.0           138.0    
    171      3     80      1       138.0           138.0    
    172      3     81      1       138.0           138.0    
    173      3     82      1       138.0           138.0    
    174      3     83      1       138.0           138.0    
    175      3     84      1       138.0           138.0    
    176      3     85      1       138.0           138.0    
    177      3     86      1       138.0           138.0    
    178      3     87      1       138.0           138.0    
    179      3     88      1       138.0           138.0    
    180      3     89      1       138.0           138.0    
    181      3     90      1       138.0           138.0    
    182      3     91      1       138.0           138.0    
    183      2      1    182       114.0           114.0    
    184      2      2    182       114.0           114.0    
    185      2      3    182       114.0           114.0    
    186      2      4    182       114.0           114.0    
    187      2      5    182       114.0           114.0    
    188      2      6    182       114.0           114.0    
    189      2      7    182       114.0           114.0    
    190      2      8    182       114.0           114.0    
    191      2      9    182       114.0           114.0    
    192      2     10    182       114.0           114.0    
    193      2     11    182       114.0           114.0    
    194      2     12    182       114.0           114.0    
    195      2     13    182       114.0           114.0    
    196      2     14    182       114.0           114.0    
    197      2     15    182       114.0           114.0    
    198      2     16    182       114.0           114.0    
    199      2     17    182       114.0           114.0    
    200      2     18    182       114.0           114.0    
    201      2     19    182       114.0           114.0    
    202      2     20    182       114.0           114.0    
    203      2     21    182       114.0           114.0    
    204      2     22    182       114.0           114.0    
    205      2     23    182       114.0           114.0    
    206      2     24    182       114.0           114.0    
    207      2     25    182       114.0           114.0    
    208      2     26    182       114.0           114.0    
    209      2     27    182       114.0           114.0    
    210      2     28    182       114.0           114.0    
    211      2     29    182       114.0           114.0    
    212      2     30    182       114.0           114.0    
    213      2     31    182       114.0           114.0    
    214      2     32    182       114.0           114.0    
    215      2     33    182       114.0           114.0    
    216      2     34    182       114.0           114.0    
    217      2     35    182       114.0           114.0    
    218      2     36    182       114.0           114.0    
    219      2     37    182       114.0           114.0    
    220      2     38    182       114.0           114.0    
    221      2     39    182       114.0           114.0    
    222      2     40    182       114.0           114.0    
    223      2     41    182       114.0           114.0    
    224      2     42    182       114.0           114.0    
    225      2     43    182       114.0           114.0    
    226      2     44    182       114.0           114.0    
    227      2     45    182       114.0           114.0    
    228      2     46    182       114.0           114.0    
    229      2     47    182       114.0           114.0    
    230      2     48    182       114.0           114.0    
    231      2     49    182       114.0           114.0    
    232      2     50    182       114.0           114.0    
    233      2     51    182       114.0           114.0    
    234      2     52    182       114.0           114.0    
    235      2     53    182       114.0           114.0    
    236      2     54    182       114.0           114.0    
    237      2     55    182       114.0           114.0    
    238      2     56    182       114.0           114.0    
    239      2     57    182       114.0           114.0    
    240      2     58    182       114.0           114.0    
    241      2     59    182       114.0           114.0    
    242      2     60    182       114.0           114.0    
    243      2     61    182       114.0           114.0    
    244      2     62    182       114.0           114.0    
    245      2     63    182       114.0           114.0    
    246      2     64    182       114.0           114.0    
    247      2     65    182       114.0           114.0    
    248      2     66    182       114.0           114.0    
    249      2     67    182       114.0           114.0    
    250      2     68    182       114.0           114.0    
    251      2     69    182       114.0           114.0    
    252      2     70    182       114.0           114.0    
    253      2     71    182       114.0           114.0    
    254      2     72    182       114.0           114.0    
    255      2     73    182       114.0           114.0    
    256      2     74    182       114.0           114.0    
    257      2     75    182       114.0           114.0    
    258      2     76    182       114.0           114.0    
    259      2     77    182       114.0           114.0    
    260      2     78    182       114.0           114.0    
    261      2     79    182       114.0           114.0    
    262      2     80    182       114.0           114.0    
    263      2     81    182       114.0           114.0    
    264      2     82    182       114.0           114.0    
    265      2     83    182       114.0           114.0    
    266      2     84    182       114.0           114.0    
    267      2     85    182       114.0           114.0    
    268      2     86    182       114.0           114.0    
    269      2     87    182       114.0           114.0    
    270      2     88    182       114.0           114.0    
    271      2     89    182       114.0           114.0    
    272      2     90    182       114.0           114.0    
    273      2     91    182       114.0           114.0    
    274      3      1    182       114.0           114.0    
    275      3      2    182       114.0           114.0    
    276      3      3    182       114.0           114.0    
    277      3      4    182       114.0           114.0    
    278      3      5    182       114.0           114.0    
    279      3      6    182       114.0           114.0    
    280      3      7    182       114.0           114.0    
    281      3      8    182       114.0           114.0    
    282      3      9    182       114.0           114.0    
    283      3     10    182       114.0           114.0    
    284      3     11    182       114.0           114.0    
    285      3     12    182       114.0           114.0    
    286      3     13    182       114.0           114.0    
    287      3     14    182       114.0           114.0    
    288      3     15    182       114.0           114.0    
    289      3     16    182       114.0           114.0    
    290      3     17    182       114.0           114.0    
    291      3     18    182       114.0           114.0    
    292      3     19    182       114.0           114.0    
    293      3     20    182       114.0           114.0    
    294      3     21    182       114.0           114.0    
    295      3     22    182       114.0           114.0    
    296      3     23    182       114.0           114.0    
    297      3     24    182       114.0           114.0    
    298      3     25    182       114.0           114.0    
    299      3     26    182       114.0           114.0    
    300      3     27    182       114.0           114.0    
    301      3     28    182       114.0           114.0    
    302      3     29    182       114.0           114.0    
    303      3     30    182       114.0           114.0    
    304      3     31    182       114.0           114.0    
    305      3     32    182       114.0           114.0    
    306      3     33    182       114.0           114.0    
    307      3     34    182       114.0           114.0    
    308      3     35    182       114.0           114.0    
    309      3     36    182       114.0           114.0    
    310      3     37    182       114.0           114.0    
    311      3     38    182       114.0           114.0    
    312      3     39    182       114.0           114.0    
    313      3     40    182       114.0           114.0    
    314      3     41    182       114.0           114.0    
    315      3     42    182       114.0           114.0    
    316      3     43    182       114.0           114.0    
    317      3     44    182       114.0           114.0    
    318      3     45    182       114.0           114.0    
    319      3     46    182       114.0           114.0    
    320      3     47    182       114.0           114.0    
    321      3     48    182       114.0           114.0    
    322      3     49    182       114.0           114.0    
    323      3     50    182       114.0           114.0    
    324      3     51    182       114.0           114.0    
    325      3     52    182       114.0           114.0    
    326      3     53    182       114.0           114.0    
    327      3     54    182       114.0           114.0    
    328      3     55    182       114.0           114.0    
    329      3     56    182       114.0           114.0    
    330      3     57    182       114.0           114.0    
    331      3     58    182       114.0           114.0    
    332      3     59    182       114.0           114.0    
    333      3     60    182       114.0           114.0    
    334      3     61    182       114.0           114.0    
    335      3     62    182       114.0           114.0    
    336      3     63    182       114.0           114.0    
    337      3     64    182       114.0           114.0    
    338      3     65    182       114.0           114.0    
    339      3     66    182       114.0           114.0    
    340      3     67    182       114.0           114.0    
    341      3     68    182       114.0           114.0    
    342      3     69    182       114.0           114.0    
    343      3     70    182       114.0           114.0    
    344      3     71    182       114.0           114.0    
    345      3     72    182       114.0           114.0    
    346      3     73    182       114.0           114.0    
    347      3     74    182       114.0           114.0    
    348      3     75    182       114.0           114.0    
    349      3     76    182       114.0           114.0    
    350      3     77    182       114.0           114.0    
    351      3     78    182       114.0           114.0    
    352      3     79    182       114.0           114.0    
    353      3     80    182       114.0           114.0    
    354      3     81    182       114.0           114.0    
    355      3     82    182       114.0           114.0    
    356      3     83    182       114.0           114.0    
    357      3     84    182       114.0           114.0    
    358      3     85    182       114.0           114.0    
    359      3     86    182       114.0           114.0    
    360      3     87    182       114.0           114.0    
    361      3     88    182       114.0           114.0    
    362      3     89    182       114.0           114.0    
    363      3     90    182       114.0           114.0    
    364      3     91    182       114.0           114.0    


    364 TIME-VARIANT SPECIFIED-HEAD CELLS
 
 SOLVING FOR HEAD 

    ------------------------------------------------
       NWT REQUIRED            9 OUTER ITERATIONS 
       AND A TOTAL OF        540 INNER ITERATIONS.
    ------------------------------------------------

 OUTPUT CONTROL FOR STRESS PERIOD    1   TIME STEP    1
    SAVE HEAD FOR ALL LAYERS
    SAVE DRAWDOWN FOR ALL LAYERS
    SAVE BUDGET
    PRINT HEAD FOR ALL LAYERS
    PRINT BUDGET
 UBDSV2 SAVING "   CONSTANT HEAD" ON UNIT  53 AT TIME STEP  1, STRESS PERIOD   1
 UBDSV1 SAVING "FLOW RIGHT FACE " ON UNIT  53 AT TIME STEP  1, STRESS PERIOD   1
 UBDSV1 SAVING "FLOW FRONT FACE " ON UNIT  53 AT TIME STEP  1, STRESS PERIOD   1
 UBDSV1 SAVING "FLOW LOWER FACE " ON UNIT  53 AT TIME STEP  1, STRESS PERIOD   1

 SAVING SATURATED THICKNESS AND FLOW TERMS ON UNIT   54 FOR MT3DMS
 BY THE LINK-MT3DMS PACKAGE V7 AT TIME STEP    1, STRESS PERIOD    1

1
              HEAD IN LAYER   1 AT END OF TIME STEP   1 IN STRESS PERIOD    1
  ---------------------------------------------------------------------------

            1           2           3           4           5           6           7           8           9          10
           11          12          13          14          15          16          17          18          19          20
           21          22          23          24          25          26          27          28          29          30
           31          32          33          34          35          36          37          38          39          40
           41          42          43          44          45          46          47          48          49          50
           51          52          53          54          55          56          57          58          59          60
           61          62          63          64          65          66          67          68          69          70
           71          72          73          74          75          76          77          78          79          80
           81          82          83          84          85          86          87          88          89          90
           91          92          93          94          95          96          97          98          99         100
          101         102         103         104         105         106         107         108         109         110
          111         112         113         114         115         116         117         118         119         120
          121         122         123         124         125         126         127         128         129         130
          131         132         133         134         135         136         137         138         139         140
          141         142         143         144         145         146         147         148         149         150
          151         152         153         154         155         156         157         158         159         160
          161         162         163         164         165         166         167         168         169         170
          171         172         173         174         175         176         177         178         179         180
          181         182
 ........................................................................................................................
   1  -1000.0     -1000.0     -1000.0     -1000.0     -1000.0     -1000.0     -1000.0     -1000.0     -1000.0     -1000.0    
      -1000.0     -1000.0     -1000.0     -1000.0     -1000.0     -1000.0     -1000.0     -1000.0     -1000.0     -1000.0    
      -1000.0     -1000.0     -1000.0     -1000.0     -1000.0     -1000.0     -1000.0     -1000.0     -1000.0     -1000.0    
      -1000.0     -1000.0     -1000.0     -1000.0     -1000.0     -1000.0     -1000.0     -1000.0     -1000.0     -1000.0    
      -1000.0     -1000.0     -1000.0     -1000.0     -1000.0     -1000.0     -1000.0     -1000.0     -1000.0     -1000.0    
      -1000.0     -1000.0     -1000.0     -1000.0     -1000.0     -1000.0     -1000.0     -1000.0     -1000.0     -1000.0    
      -1000.0     -1000.0     -1000.0     -1000.0     -1000.0     -1000.0     -1000.0     -1000.0     -1000.0     -1000.0    
      -1000.0     -1000.0     -1000.0     -1000.0     -1000.0     -1000.0     -1000.0     -1000.0     -1000.0     -1000.0    
      -1000.0     -1000.0     -1000.0     -1000.0     -1000.0     -1000.0     -1000.0     -1000.0     -1000.0     -1000.0    
      -1000.0     -1000.0     -1000.0     -1000.0     -1000.0     -1000.0     -1000.0     -1000.0     -1000.0     -1000.0    
      -1000.0     -1000.0     -1000.0     -1000.0     -1000.0     -1000.0     -1000.0     -1000.0     -1000.0     -1000.0    
      -1000.0     -1000.0     -1000.0     -1000.0     -1000.0     -1000.0     -1000.0     -1000.0     -1000.0     -1000.0    
      -1000.0     -1000.0     -1000.0     -1000.0     -1000.0     -1000.0     -1000.0     -1000.0     -1000.0     -1000.0    
      -1000.0     -1000.0     -1000.0     -1000.0     -1000.0     -1000.0     -1000.0     -1000.0     -1000.0     -1000.0    
      -1000.0     -1000.0     -1000.0     -1000.0     -1000.0     -1000.0     -1000.0     -1000.0     -1000.0     -1000.0    
      -1000.0     -1000.0     -1000.0     -1000.0     -1000.0     -1000.0     -1000.0     -1000.0     -1000.0     -1000.0    
      -1000.0     -1000.0     -1000.0     -1000.0     -1000.0     -1000.0     -1000.0     -1000.0     -1000.0     -1000.0    
      -1000.0     -1000.0     -1000.0     -1000.0     -1000.0     -1000.0     -1000.0     -1000.0     -1000.0     -1000.0    
      -1000.0     -1000.0    
   2  -1000.0     -1000.0     -1000.0     -1000.0     -1000.0     -1000.0     -1000.0     -1000.0     -1000.0     -1000.0    
      -1000.0     -1000.0     -1000.0     -1000.0     -1000.0     -1000.0     -1000.0     -1000.0     -1000.0     -1000.0    
      -1000.0     -1000.0     -1000.0     -1000.0     -1000.0     -1000.0     -1000.0     -1000.0     -1000.0     -1000.0    
      -1000.0     -1000.0     -1000.0     -1000.0     -1000.0     -1000.0     -1000.0     -1000.0     -1000.0     -1000.0    
      -1000.0     -1000.0     -1000.0     -1000.0     -1000.0     -1000.0     -1000.0     -1000.0     -1000.0     -1000.0    
      -1000.0     -1000.0     -1000.0     -1000.0     -1000.0     -1000.0     -1000.0     -1000.0     -1000.0     -1000.0    
      -1000.0     -1000.0     -1000.0     -1000.0     -1000.0     -1000.0     -1000.0     -1000.0     -1000.0     -1000.0    
      -1000.0     -1000.0     -1000.0     -1000.0     -1000.0     -1000.0     -1000.0     -1000.0     -1000.0     -1000.0    
      -1000.0     -1000.0     -1000.0     -1000.0     -1000.0     -1000.0     -1000.0     -1000.0     -1000.0     -1000.0    
      -1000.0     -1000.0     -1000.0     -1000.0     -1000.0     -1000.0     -1000.0     -1000.0     -1000.0     -1000.0    
      -1000.0     -1000.0     -1000.0     -1000.0     -1000.0     -1000.0     -1000.0     -1000.0     -1000.0     -1000.0    
      -1000.0     -1000.0     -1000.0     -1000.0     -1000.0     -1000.0     -1000.0     -1000.0     -1000.0     -1000.0    
      -1000.0     -1000.0     -1000.0     -1000.0     -1000.0     -1000.0     -1000.0     -1000.0     -1000.0     -1000.0    
      -1000.0     -1000.0     -1000.0     -1000.0     -1000.0     -1000.0     -1000.0     -1000.0     -1000.0     -1000.0    
      -1000.0     -1000.0     -1000.0     -1000.0     -1000.0     -1000.0     -1000.0     -1000.0     -1000.0     -1000.0    
      -1000.0     -1000.0     -1000.0     -1000.0     -1000.0     -1000.0     -1000.0     -1000.0     -1000.0     -1000.0    
      -1000.0     -1000.0     -1000.0     -1000.0     -1000.0     -1000.0     -1000.0     -1000.0     -1000.0     -1000.0    
      -1000.0     -1000.0     -1000.0     -1000.0     -1000.0     -1000.0     -1000.0     -1000.0     -1000.0     -1000.0    
      -1000.0     -1000.0    
   3  -1000.0     -1000.0     -1000.0     -1000.0     -1000.0     -1000.0     -1000.0     -1000.0     -1000.0     -1000.0    
      -1000.0     -1000.0     -1000.0     -1000.0     -1000.0     -1000.0     -1000.0     -1000.0     -1000.0     -1000.0    
      -1000.0     -1000.0     -1000.0     -1000.0     -1000.0     -1000.0     -1000.0     -1000.0     -1000.0     -1000.0    
      -1000.0     -1000.0     -1000.0     -1000.0     -1000.0     -1000.0     -1000.0     -1000.0     -1000.0     -1000.0    
      -1000.0     -1000.0     -1000.0     -1000.0     -1000.0     -1000.0     -1000.0     -1000.0     -1000.0     -1000.0    
      -1000.0     -1000.0     -1000.0     -1000.0     -1000.0     -1000.0     -1000.0     -1000.0     -1000.0     -1000.0    
      -1000.0     -1000.0     -1000.0     -1000.0     -1000.0     -1000.0     -1000.0     -1000.0     -1000.0     -1000.0    
      -1000.0     -1000.0     -1000.0     -1000.0     -1000.0     -1000.0     -1000.0     -1000.0     -1000.0     -1000.0    
      -1000.0     -1000.0     -1000.0     -1000.0     -1000.0     -1000.0     -1000.0     -1000.0     -1000.0     -1000.0    
      -1000.0     -1000.0     -1000.0     -1000.0     -1000.0     -1000.0     -1000.0     -1000.0     -1000.0     -1000.0    
      -1000.0     -1000.0     -1000.0     -1000.0     -1000.0     -1000.0     -1000.0     -1000.0     -1000.0     -1000.0    
      -1000.0     -1000.0     -1000.0     -1000.0     -1000.0     -1000.0     -1000.0     -1000.0     -1000.0     -1000.0    
      -1000.0     -1000.0     -1000.0     -1000.0     -1000.0     -1000.0     -1000.0     -1000.0     -1000.0     -1000.0    
      -1000.0     -1000.0     -1000.0     -1000.0     -1000.0     -1000.0     -1000.0     -1000.0     -1000.0     -1000.0    
      -1000.0     -1000.0     -1000.0     -1000.0     -1000.0     -1000.0     -1000.0     -1000.0     -1000.0     -1000.0    
      -1000.0     -1000.0     -1000.0     -1000.0     -1000.0     -1000.0     -1000.0     -1000.0     -1000.0     -1000.0    
      -1000.0     -1000.0     -1000.0     -1000.0     -1000.0     -1000.0     -1000.0     -1000.0     -1000.0     -1000.0    
      -1000.0     -1000.0     -1000.0     -1000.0     -1000.0     -1000.0     -1000.0     -1000.0     -1000.0     -1000.0    
      -1000.0     -1000.0    
   4  -1000.0     -1000.0     -1000.0     -1000.0     -1000.0     -1000.0     -1000.0     -1000.0     -1000.0     -1000.0    
      -1000.0     -1000.0     -1000.0     -1000.0     -1000.0     -1000.0     -1000.0     -1000.0     -1000.0     -1000.0    
      -1000.0     -1000.0     -1000.0     -1000.0     -1000.0     -1000.0     -1000.0     -1000.0     -1000.0     -1000.0    
      -1000.0     -1000.0     -1000.0     -1000.0     -1000.0     -1000.0     -1000.0     -1000.0     -1000.0     -1000.0    
      -1000.0     -1000.0     -1000.0     -1000.0     -1000.0     -1000.0     -1000.0     -1000.0     -1000.0     -1000.0    
      -1000.0     -1000.0     -1000.0     -1000.0     -1000.0     -1000.0     -1000.0     -1000.0     -1000.0     -1000.0    
      -1000.0     -1000.0     -1000.0     -1000.0     -1000.0     -1000.0     -1000.0     -1000.0     -1000.0     -1000.0    
      -1000.0     -1000.0     -1000.0     -1000.0     -1000.0     -1000.0     -1000.0     -1000.0     -1000.0     -1000.0    
      -1000.0     -1000.0     -1000.0     -1000.0     -1000.0     -1000.0     -1000.0     -1000.0     -1000.0     -1000.0    
      -1000.0     -1000.0     -1000.0     -1000.0     -1000.0     -1000.0     -1000.0     -1000.0     -1000.0     -1000.0    
      -1000.0     -1000.0     -1000.0     -1000.0     -1000.0     -1000.0     -1000.0     -1000.0     -1000.0     -1000.0    
      -1000.0     -1000.0     -1000.0     -1000.0     -1000.0     -1000.0     -1000.0     -1000.0     -1000.0     -1000.0    
      -1000.0     -1000.0     -1000.0     -1000.0     -1000.0     -1000.0     -1000.0     -1000.0     -1000.0     -1000.0    
      -1000.0     -1000.0     -1000.0     -1000.0     -1000.0     -1000.0     -1000.0     -1000.0     -1000.0     -1000.0    
      -1000.0     -1000.0     -1000.0     -1000.0     -1000.0     -1000.0     -1000.0     -1000.0     -1000.0     -1000.0    
      -1000.0     -1000.0     -1000.0     -1000.0     -1000.0     -1000.0     -1000.0     -1000.0     -1000.0     -1000.0    
      -1000.0     -1000.0     -1000.0     -1000.0     -1000.0     -1000.0     -1000.0     -1000.0     -1000.0     -1000.0    
      -1000.0     -1000.0     -1000.0     -1000.0     -1000.0     -1000.0     -1000.0     -1000.0     -1000.0     -1000.0    
      -1000.0     -1000.0    
   5  -1000.0     -1000.0     -1000.0     -1000.0     -1000.0     -1000.0     -1000.0     -1000.0     -1000.0     -1000.0    
      -1000.0     -1000.0     -1000.0     -1000.0     -1000.0     -1000.0     -1000.0     -1000.0     -1000.0     -1000.0    
      -1000.0     -1000.0     -1000.0     -1000.0     -1000.0     -1000.0     -1000.0     -1000.0     -1000.0     -1000.0    
      -1000.0     -1000.0     -1000.0     -1000.0     -1000.0     -1000.0     -1000.0     -1000.0     -1000.0     -1000.0    
      -1000.0     -1000.0     -1000.0     -1000.0     -1000.0     -1000.0     -1000.0     -1000.0     -1000.0     -1000.0    
      -1000.0     -1000.0     -1000.0     -1000.0     -1000.0     -1000.0     -1000.0     -1000.0     -1000.0     -1000.0    
      -1000.0     -1000.0     -1000.0     -1000.0     -1000.0     -1000.0     -1000.0     -1000.0     -1000.0     -1000.0    
      -1000.0     -1000.0     -1000.0     -1000.0     -1000.0     -1000.0     -1000.0     -1000.0     -1000.0     -1000.0    
      -1000.0     -1000.0     -1000.0     -1000.0     -1000.0     -1000.0     -1000.0     -1000.0     -1000.0     -1000.0    
      -1000.0     -1000.0     -1000.0     -1000.0     -1000.0     -1000.0     -1000.0     -1000.0     -1000.0     -1000.0    
      -1000.0     -1000.0     -1000.0     -1000.0     -1000.0     -1000.0     -1000.0     -1000.0     -1000.0     -1000.0    
      -1000.0     -1000.0     -1000.0     -1000.0     -1000.0     -1000.0     -1000.0     -1000.0     -1000.0     -1000.0    
      -1000.0     -1000.0     -1000.0     -1000.0     -1000.0     -1000.0     -1000.0     -1000.0     -1000.0     -1000.0    
      -1000.0     -1000.0     -1000.0     -1000.0     -1000.0     -1000.0     -1000.0     -1000.0     -1000.0     -1000.0    
      -1000.0     -1000.0     -1000.0     -1000.0     -1000.0     -1000.0     -1000.0     -1000.0     -1000.0     -1000.0    
      -1000.0     -1000.0     -1000.0     -1000.0     -1000.0     -1000.0     -1000.0     -1000.0     -1000.0     -1000.0    
      -1000.0     -1000.0     -1000.0     -1000.0     -1000.0     -1000.0     -1000.0     -1000.0     -1000.0     -1000.0    
      -1000.0     -1000.0     -1000.0     -1000.0     -1000.0     -1000.0     -1000.0     -1000.0     -1000.0     -1000.0    
      -1000.0     -1000.0    
   6  -1000.0     -1000.0     -1000.0     -1000.0     -1000.0     -1000.0     -1000.0     -1000.0     -1000.0     -1000.0    
      -1000.0     -1000.0     -1000.0     -1000.0     -1000.0     -1000.0     -1000.0     -1000.0     -1000.0     -1000.0    
      -1000.0     -1000.0     -1000.0     -1000.0     -1000.0     -1000.0     -1000.0     -1000.0     -1000.0     -1000.0    
      -1000.0     -1000.0     -1000.0     -1000.0     -1000.0     -1000.0     -1000.0     -1000.0     -1000.0     -1000.0    
      -1000.0     -1000.0     -1000.0     -1000.0     -1000.0     -1000.0     -1000.0     -1000.0     -1000.0     -1000.0    
      -1000.0     -1000.0     -1000.0     -1000.0     -1000.0     -1000.0     -1000.0     -1000.0     -1000.0     -1000.0    
      -1000.0     -1000.0     -1000.0     -1000.0     -1000.0     -1000.0     -1000.0     -1000.0     -1000.0     -1000.0    
      -1000.0     -1000.0     -1000.0     -1000.0     -1000.0     -1000.0     -1000.0     -1000.0     -1000.0     -1000.0    
      -1000.0     -1000.0     -1000.0     -1000.0     -1000.0     -1000.0     -1000.0     -1000.0     -1000.0     -1000.0    
      -1000.0     -1000.0     -1000.0     -1000.0     -1000.0     -1000.0     -1000.0     -1000.0     -1000.0     -1000.0    
      -1000.0     -1000.0     -1000.0     -1000.0     -1000.0     -1000.0     -1000.0     -1000.0     -1000.0     -1000.0    
      -1000.0     -1000.0     -1000.0     -1000.0     -1000.0     -1000.0     -1000.0     -1000.0     -1000.0     -1000.0    
      -1000.0     -1000.0     -1000.0     -1000.0     -1000.0     -1000.0     -1000.0     -1000.0     -1000.0     -1000.0    
      -1000.0     -1000.0     -1000.0     -1000.0     -1000.0     -1000.0     -1000.0     -1000.0     -1000.0     -1000.0    
      -1000.0     -1000.0     -1000.0     -1000.0     -1000.0     -1000.0     -1000.0     -1000.0     -1000.0     -1000.0    
      -1000.0     -1000.0     -1000.0     -1000.0     -1000.0     -1000.0     -1000.0     -1000.0     -1000.0     -1000.0    
      -1000.0     -1000.0     -1000.0     -1000.0     -1000.0     -1000.0     -1000.0     -1000.0     -1000.0     -1000.0    
      -1000.0     -1000.0     -1000.0     -1000.0     -1000.0     -1000.0     -1000.0     -1000.0     -1000.0     -1000.0    
      -1000.0     -1000.0    
   7  -1000.0     -1000.0     -1000.0     -1000.0     -1000.0     -1000.0     -1000.0     -1000.0     -1000.0     -1000.0    
      -1000.0     -1000.0     -1000.0     -1000.0     -1000.0     -1000.0     -1000.0     -1000.0     -1000.0     -1000.0    
      -1000.0     -1000.0     -1000.0     -1000.0     -1000.0     -1000.0     -1000.0     -1000.0     -1000.0     -1000.0    
      -1000.0     -1000.0     -1000.0     -1000.0     -1000.0     -1000.0     -1000.0     -1000.0     -1000.0     -1000.0    
      -1000.0     -1000.0     -1000.0     -1000.0     -1000.0     -1000.0     -1000.0     -1000.0     -1000.0     -1000.0    
      -1000.0     -1000.0     -1000.0     -1000.0     -1000.0     -1000.0     -1000.0     -1000.0     -1000.0     -1000.0    
      -1000.0     -1000.0     -1000.0     -1000.0     -1000.0     -1000.0     -1000.0     -1000.0     -1000.0     -1000.0    
      -1000.0     -1000.0     -1000.0     -1000.0     -1000.0     -1000.0     -1000.0     -1000.0     -1000.0     -1000.0    
      -1000.0     -1000.0     -1000.0     -1000.0     -1000.0     -1000.0     -1000.0     -1000.0     -1000.0     -1000.0    
      -1000.0     -1000.0     -1000.0     -1000.0     -1000.0     -1000.0     -1000.0     -1000.0     -1000.0     -1000.0    
      -1000.0     -1000.0     -1000.0     -1000.0     -1000.0     -1000.0     -1000.0     -1000.0     -1000.0     -1000.0    
      -1000.0     -1000.0     -1000.0     -1000.0     -1000.0     -1000.0     -1000.0     -1000.0     -1000.0     -1000.0    
      -1000.0     -1000.0     -1000.0     -1000.0     -1000.0     -1000.0     -1000.0     -1000.0     -1000.0     -1000.0    
      -1000.0     -1000.0     -1000.0     -1000.0     -1000.0     -1000.0     -1000.0     -1000.0     -1000.0     -1000.0    
      -1000.0     -1000.0     -1000.0     -1000.0     -1000.0     -1000.0     -1000.0     -1000.0     -1000.0     -1000.0    
      -1000.0     -1000.0     -1000.0     -1000.0     -1000.0     -1000.0     -1000.0     -1000.0     -1000.0     -1000.0    
      -1000.0     -1000.0     -1000.0     -1000.0     -1000.0     -1000.0     -1000.0     -1000.0     -1000.0     -1000.0    
      -1000.0     -1000.0     -1000.0     -1000.0     -1000.0     -1000.0     -1000.0     -1000.0     -1000.0     -1000.0    
      -1000.0     -1000.0    
   8  -1000.0     -1000.0     -1000.0     -1000.0     -1000.0     -1000.0     -1000.0     -1000.0     -1000.0     -1000.0    
      -1000.0     -1000.0     -1000.0     -1000.0     -1000.0     -1000.0     -1000.0     -1000.0     -1000.0     -1000.0    
      -1000.0     -1000.0     -1000.0     -1000.0     -1000.0     -1000.0     -1000.0     -1000.0     -1000.0     -1000.0    
      -1000.0     -1000.0     -1000.0     -1000.0     -1000.0     -1000.0     -1000.0     -1000.0     -1000.0     -1000.0    
      -1000.0     -1000.0     -1000.0     -1000.0     -1000.0     -1000.0     -1000.0     -1000.0     -1000.0     -1000.0    
      -1000.0     -1000.0     -1000.0     -1000.0     -1000.0     -1000.0     -1000.0     -1000.0     -1000.0     -1000.0    
      -1000.0     -1000.0     -1000.0     -1000.0     -1000.0     -1000.0     -1000.0     -1000.0     -1000.0     -1000.0    
      -1000.0     -1000.0     -1000.0     -1000.0     -1000.0     -1000.0     -1000.0     -1000.0     -1000.0     -1000.0    
      -1000.0     -1000.0     -1000.0     -1000.0     -1000.0     -1000.0     -1000.0     -1000.0     -1000.0     -1000.0    
      -1000.0     -1000.0     -1000.0     -1000.0     -1000.0     -1000.0     -1000.0     -1000.0     -1000.0     -1000.0    
      -1000.0     -1000.0     -1000.0     -1000.0     -1000.0     -1000.0     -1000.0     -1000.0     -1000.0     -1000.0    
      -1000.0     -1000.0     -1000.0     -1000.0     -1000.0     -1000.0     -1000.0     -1000.0     -1000.0     -1000.0    
      -1000.0     -1000.0     -1000.0     -1000.0     -1000.0     -1000.0     -1000.0     -1000.0     -1000.0     -1000.0    
      -1000.0     -1000.0     -1000.0     -1000.0     -1000.0     -1000.0     -1000.0     -1000.0     -1000.0     -1000.0    
      -1000.0     -1000.0     -1000.0     -1000.0     -1000.0     -1000.0     -1000.0     -1000.0     -1000.0     -1000.0    
      -1000.0     -1000.0     -1000.0     -1000.0     -1000.0     -1000.0     -1000.0     -1000.0     -1000.0     -1000.0    
      -1000.0     -1000.0     -1000.0     -1000.0     -1000.0     -1000.0     -1000.0     -1000.0     -1000.0     -1000.0    
      -1000.0     -1000.0     -1000.0     -1000.0     -1000.0     -1000.0     -1000.0     -1000.0     -1000.0     -1000.0    
      -1000.0     -1000.0    
   9  -1000.0     -1000.0     -1000.0     -1000.0     -1000.0     -1000.0     -1000.0     -1000.0     -1000.0     -1000.0    
      -1000.0     -1000.0     -1000.0     -1000.0     -1000.0     -1000.0     -1000.0     -1000.0     -1000.0     -1000.0    
      -1000.0     -1000.0     -1000.0     -1000.0     -1000.0     -1000.0     -1000.0     -1000.0     -1000.0     -1000.0    
      -1000.0     -1000.0     -1000.0     -1000.0     -1000.0     -1000.0     -1000.0     -1000.0     -1000.0     -1000.0    
      -1000.0     -1000.0     -1000.0     -1000.0     -1000.0     -1000.0     -1000.0     -1000.0     -1000.0     -1000.0    
      -1000.0     -1000.0     -1000.0     -1000.0     -1000.0     -1000.0     -1000.0     -1000.0     -1000.0     -1000.0    
      -1000.0     -1000.0     -1000.0     -1000.0     -1000.0     -1000.0     -1000.0     -1000.0     -1000.0     -1000.0    
      -1000.0     -1000.0     -1000.0     -1000.0     -1000.0     -1000.0     -1000.0     -1000.0     -1000.0     -1000.0    
      -1000.0     -1000.0     -1000.0     -1000.0     -1000.0     -1000.0     -1000.0     -1000.0     -1000.0     -1000.0    
      -1000.0     -1000.0     -1000.0     -1000.0     -1000.0     -1000.0     -1000.0     -1000.0     -1000.0     -1000.0    
      -1000.0     -1000.0     -1000.0     -1000.0     -1000.0     -1000.0     -1000.0     -1000.0     -1000.0     -1000.0    
      -1000.0     -1000.0     -1000.0     -1000.0     -1000.0     -1000.0     -1000.0     -1000.0     -1000.0     -1000.0    
      -1000.0     -1000.0     -1000.0     -1000.0     -1000.0     -1000.0     -1000.0     -1000.0     -1000.0     -1000.0    
      -1000.0     -1000.0     -1000.0     -1000.0     -1000.0     -1000.0     -1000.0     -1000.0     -1000.0     -1000.0    
      -1000.0     -1000.0     -1000.0     -1000.0     -1000.0     -1000.0     -1000.0     -1000.0     -1000.0     -1000.0    
      -1000.0     -1000.0     -1000.0     -1000.0     -1000.0     -1000.0     -1000.0     -1000.0     -1000.0     -1000.0    
      -1000.0     -1000.0     -1000.0     -1000.0     -1000.0     -1000.0     -1000.0     -1000.0     -1000.0     -1000.0    
      -1000.0     -1000.0     -1000.0     -1000.0     -1000.0     -1000.0     -1000.0     -1000.0     -1000.0     -1000.0    
      -1000.0     -1000.0    
  10  -1000.0     -1000.0     -1000.0     -1000.0     -1000.0     -1000.0     -1000.0     -1000.0     -1000.0     -1000.0    
      -1000.0     -1000.0     -1000.0     -1000.0     -1000.0     -1000.0     -1000.0     -1000.0     -1000.0     -1000.0    
      -1000.0     -1000.0     -1000.0     -1000.0     -1000.0     -1000.0     -1000.0     -1000.0     -1000.0     -1000.0    
      -1000.0     -1000.0     -1000.0     -1000.0     -1000.0     -1000.0     -1000.0     -1000.0     -1000.0     -1000.0    
      -1000.0     -1000.0     -1000.0     -1000.0     -1000.0     -1000.0     -1000.0     -1000.0     -1000.0     -1000.0    
      -1000.0     -1000.0     -1000.0     -1000.0     -1000.0     -1000.0     -1000.0     -1000.0     -1000.0     -1000.0    
      -1000.0     -1000.0     -1000.0     -1000.0     -1000.0     -1000.0     -1000.0     -1000.0     -1000.0     -1000.0    
      -1000.0     -1000.0     -1000.0     -1000.0     -1000.0     -1000.0     -1000.0     -1000.0     -1000.0     -1000.0    
      -1000.0     -1000.0     -1000.0     -1000.0     -1000.0     -1000.0     -1000.0     -1000.0     -1000.0     -1000.0    
      -1000.0     -1000.0     -1000.0     -1000.0     -1000.0     -1000.0     -1000.0     -1000.0     -1000.0     -1000.0    
      -1000.0     -1000.0     -1000.0     -1000.0     -1000.0     -1000.0     -1000.0     -1000.0     -1000.0     -1000.0    
      -1000.0     -1000.0     -1000.0     -1000.0     -1000.0     -1000.0     -1000.0     -1000.0     -1000.0     -1000.0    
      -1000.0     -1000.0     -1000.0     -1000.0     -1000.0     -1000.0     -1000.0     -1000.0     -1000.0     -1000.0    
      -1000.0     -1000.0     -1000.0     -1000.0     -1000.0     -1000.0     -1000.0     -1000.0     -1000.0     -1000.0    
      -1000.0     -1000.0     -1000.0     -1000.0     -1000.0     -1000.0     -1000.0     -1000.0     -1000.0     -1000.0    
      -1000.0     -1000.0     -1000.0     -1000.0     -1000.0     -1000.0     -1000.0     -1000.0     -1000.0     -1000.0    
      -1000.0     -1000.0     -1000.0     -1000.0     -1000.0     -1000.0     -1000.0     -1000.0     -1000.0     -1000.0    
      -1000.0     -1000.0     -1000.0     -1000.0     -1000.0     -1000.0     -1000.0     -1000.0     -1000.0     -1000.0    
      -1000.0     -1000.0    
  11  -1000.0     -1000.0     -1000.0     -1000.0     -1000.0     -1000.0     -1000.0     -1000.0     -1000.0     -1000.0    
      -1000.0     -1000.0     -1000.0     -1000.0     -1000.0     -1000.0     -1000.0     -1000.0     -1000.0     -1000.0    
      -1000.0     -1000.0     -1000.0     -1000.0     -1000.0     -1000.0     -1000.0     -1000.0     -1000.0     -1000.0    
      -1000.0     -1000.0     -1000.0     -1000.0     -1000.0     -1000.0     -1000.0     -1000.0     -1000.0     -1000.0    
      -1000.0     -1000.0     -1000.0     -1000.0     -1000.0     -1000.0     -1000.0     -1000.0     -1000.0     -1000.0    
      -1000.0     -1000.0     -1000.0     -1000.0     -1000.0     -1000.0     -1000.0     -1000.0     -1000.0     -1000.0    
      -1000.0     -1000.0     -1000.0     -1000.0     -1000.0     -1000.0     -1000.0     -1000.0     -1000.0     -1000.0    
      -1000.0     -1000.0     -1000.0     -1000.0     -1000.0     -1000.0     -1000.0     -1000.0     -1000.0     -1000.0    
      -1000.0     -1000.0     -1000.0     -1000.0     -1000.0     -1000.0     -1000.0     -1000.0     -1000.0     -1000.0    
      -1000.0     -1000.0     -1000.0     -1000.0     -1000.0     -1000.0     -1000.0     -1000.0     -1000.0     -1000.0    
      -1000.0     -1000.0     -1000.0     -1000.0     -1000.0     -1000.0     -1000.0     -1000.0     -1000.0     -1000.0    
      -1000.0     -1000.0     -1000.0     -1000.0     -1000.0     -1000.0     -1000.0     -1000.0     -1000.0     -1000.0    
      -1000.0     -1000.0     -1000.0     -1000.0     -1000.0     -1000.0     -1000.0     -1000.0     -1000.0     -1000.0    
      -1000.0     -1000.0     -1000.0     -1000.0     -1000.0     -1000.0     -1000.0     -1000.0     -1000.0     -1000.0    
      -1000.0     -1000.0     -1000.0     -1000.0     -1000.0     -1000.0     -1000.0     -1000.0     -1000.0     -1000.0    
      -1000.0     -1000.0     -1000.0     -1000.0     -1000.0     -1000.0     -1000.0     -1000.0     -1000.0     -1000.0    
      -1000.0     -1000.0     -1000.0     -1000.0     -1000.0     -1000.0     -1000.0     -1000.0     -1000.0     -1000.0    
      -1000.0     -1000.0     -1000.0     -1000.0     -1000.0     -1000.0     -1000.0     -1000.0     -1000.0     -1000.0    
      -1000.0     -1000.0    
  12  -1000.0     -1000.0     -1000.0     -1000.0     -1000.0     -1000.0     -1000.0     -1000.0     -1000.0     -1000.0    
      -1000.0     -1000.0     -1000.0     -1000.0     -1000.0     -1000.0     -1000.0     -1000.0     -1000.0     -1000.0    
      -1000.0     -1000.0     -1000.0     -1000.0     -1000.0     -1000.0     -1000.0     -1000.0     -1000.0     -1000.0    
      -1000.0     -1000.0     -1000.0     -1000.0     -1000.0     -1000.0     -1000.0     -1000.0     -1000.0     -1000.0    
      -1000.0     -1000.0     -1000.0     -1000.0     -1000.0     -1000.0     -1000.0     -1000.0     -1000.0     -1000.0    
      -1000.0     -1000.0     -1000.0     -1000.0     -1000.0     -1000.0     -1000.0     -1000.0     -1000.0     -1000.0    
      -1000.0     -1000.0     -1000.0     -1000.0     -1000.0     -1000.0     -1000.0     -1000.0     -1000.0     -1000.0    
      -1000.0     -1000.0     -1000.0     -1000.0     -1000.0     -1000.0     -1000.0     -1000.0     -1000.0     -1000.0    
      -1000.0     -1000.0     -1000.0     -1000.0     -1000.0     -1000.0     -1000.0     -1000.0     -1000.0     -1000.0    
      -1000.0     -1000.0     -1000.0     -1000.0     -1000.0     -1000.0     -1000.0     -1000.0     -1000.0     -1000.0    
      -1000.0     -1000.0     -1000.0     -1000.0     -1000.0     -1000.0     -1000.0     -1000.0     -1000.0     -1000.0    
      -1000.0     -1000.0     -1000.0     -1000.0     -1000.0     -1000.0     -1000.0     -1000.0     -1000.0     -1000.0    
      -1000.0     -1000.0     -1000.0     -1000.0     -1000.0     -1000.0     -1000.0     -1000.0     -1000.0     -1000.0    
      -1000.0     -1000.0     -1000.0     -1000.0     -1000.0     -1000.0     -1000.0     -1000.0     -1000.0     -1000.0    
      -1000.0     -1000.0     -1000.0     -1000.0     -1000.0     -1000.0     -1000.0     -1000.0     -1000.0     -1000.0    
      -1000.0     -1000.0     -1000.0     -1000.0     -1000.0     -1000.0     -1000.0     -1000.0     -1000.0     -1000.0    
      -1000.0     -1000.0     -1000.0     -1000.0     -1000.0     -1000.0     -1000.0     -1000.0     -1000.0     -1000.0    
      -1000.0     -1000.0     -1000.0     -1000.0     -1000.0     -1000.0     -1000.0     -1000.0     -1000.0     -1000.0    
      -1000.0     -1000.0    
  13  -1000.0     -1000.0     -1000.0     -1000.0     -1000.0     -1000.0     -1000.0     -1000.0     -1000.0     -1000.0    
      -1000.0     -1000.0     -1000.0     -1000.0     -1000.0     -1000.0     -1000.0     -1000.0     -1000.0     -1000.0    
      -1000.0     -1000.0     -1000.0     -1000.0     -1000.0     -1000.0     -1000.0     -1000.0     -1000.0     -1000.0    
      -1000.0     -1000.0     -1000.0     -1000.0     -1000.0     -1000.0     -1000.0     -1000.0     -1000.0     -1000.0    
      -1000.0     -1000.0     -1000.0     -1000.0     -1000.0     -1000.0     -1000.0     -1000.0     -1000.0     -1000.0    
      -1000.0     -1000.0     -1000.0     -1000.0     -1000.0     -1000.0     -1000.0     -1000.0     -1000.0     -1000.0    
      -1000.0     -1000.0     -1000.0     -1000.0     -1000.0     -1000.0     -1000.0     -1000.0     -1000.0     -1000.0    
      -1000.0     -1000.0     -1000.0     -1000.0     -1000.0     -1000.0     -1000.0     -1000.0     -1000.0     -1000.0    
      -1000.0     -1000.0     -1000.0     -1000.0     -1000.0     -1000.0     -1000.0     -1000.0     -1000.0     -1000.0    
      -1000.0     -1000.0     -1000.0     -1000.0     -1000.0     -1000.0     -1000.0     -1000.0     -1000.0     -1000.0    
      -1000.0     -1000.0     -1000.0     -1000.0     -1000.0     -1000.0     -1000.0     -1000.0     -1000.0     -1000.0    
      -1000.0     -1000.0     -1000.0     -1000.0     -1000.0     -1000.0     -1000.0     -1000.0     -1000.0     -1000.0    
      -1000.0     -1000.0     -1000.0     -1000.0     -1000.0     -1000.0     -1000.0     -1000.0     -1000.0     -1000.0    
      -1000.0     -1000.0     -1000.0     -1000.0     -1000.0     -1000.0     -1000.0     -1000.0     -1000.0     -1000.0    
      -1000.0     -1000.0     -1000.0     -1000.0     -1000.0     -1000.0     -1000.0     -1000.0     -1000.0     -1000.0    
      -1000.0     -1000.0     -1000.0     -1000.0     -1000.0     -1000.0     -1000.0     -1000.0     -1000.0     -1000.0    
      -1000.0     -1000.0     -1000.0     -1000.0     -1000.0     -1000.0     -1000.0     -1000.0     -1000.0     -1000.0    
      -1000.0     -1000.0     -1000.0     -1000.0     -1000.0     -1000.0     -1000.0     -1000.0     -1000.0     -1000.0    
      -1000.0     -1000.0    
  14  -1000.0     -1000.0     -1000.0     -1000.0     -1000.0     -1000.0     -1000.0     -1000.0     -1000.0     -1000.0    
      -1000.0     -1000.0     -1000.0     -1000.0     -1000.0     -1000.0     -1000.0     -1000.0     -1000.0     -1000.0    
      -1000.0     -1000.0     -1000.0     -1000.0     -1000.0     -1000.0     -1000.0     -1000.0     -1000.0     -1000.0    
      -1000.0     -1000.0     -1000.0     -1000.0     -1000.0     -1000.0     -1000.0     -1000.0     -1000.0     -1000.0    
      -1000.0     -1000.0     -1000.0     -1000.0     -1000.0     -1000.0     -1000.0     -1000.0     -1000.0     -1000.0    
      -1000.0     -1000.0     -1000.0     -1000.0     -1000.0     -1000.0     -1000.0     -1000.0     -1000.0     -1000.0    
      -1000.0     -1000.0     -1000.0     -1000.0     -1000.0     -1000.0     -1000.0     -1000.0     -1000.0     -1000.0    
      -1000.0     -1000.0     -1000.0     -1000.0     -1000.0     -1000.0     -1000.0     -1000.0     -1000.0     -1000.0    
      -1000.0     -1000.0     -1000.0     -1000.0     -1000.0     -1000.0     -1000.0     -1000.0     -1000.0     -1000.0    
      -1000.0     -1000.0     -1000.0     -1000.0     -1000.0     -1000.0     -1000.0     -1000.0     -1000.0     -1000.0    
      -1000.0     -1000.0     -1000.0     -1000.0     -1000.0     -1000.0     -1000.0     -1000.0     -1000.0     -1000.0    
      -1000.0     -1000.0     -1000.0     -1000.0     -1000.0     -1000.0     -1000.0     -1000.0     -1000.0     -1000.0    
      -1000.0     -1000.0     -1000.0     -1000.0     -1000.0     -1000.0     -1000.0     -1000.0     -1000.0     -1000.0    
      -1000.0     -1000.0     -1000.0     -1000.0     -1000.0     -1000.0     -1000.0     -1000.0     -1000.0     -1000.0    
      -1000.0     -1000.0     -1000.0     -1000.0     -1000.0     -1000.0     -1000.0     -1000.0     -1000.0     -1000.0    
      -1000.0     -1000.0     -1000.0     -1000.0     -1000.0     -1000.0     -1000.0     -1000.0     -1000.0     -1000.0    
      -1000.0     -1000.0     -1000.0     -1000.0     -1000.0     -1000.0     -1000.0     -1000.0     -1000.0     -1000.0    
      -1000.0     -1000.0     -1000.0     -1000.0     -1000.0     -1000.0     -1000.0     -1000.0     -1000.0     -1000.0    
      -1000.0     -1000.0    
  15  -1000.0     -1000.0     -1000.0     -1000.0     -1000.0     -1000.0     -1000.0     -1000.0     -1000.0     -1000.0    
      -1000.0     -1000.0     -1000.0     -1000.0     -1000.0     -1000.0     -1000.0     -1000.0     -1000.0     -1000.0    
      -1000.0     -1000.0     -1000.0     -1000.0     -1000.0     -1000.0     -1000.0     -1000.0     -1000.0     -1000.0    
      -1000.0     -1000.0     -1000.0     -1000.0     -1000.0     -1000.0     -1000.0     -1000.0     -1000.0     -1000.0    
      -1000.0     -1000.0     -1000.0     -1000.0     -1000.0     -1000.0     -1000.0     -1000.0     -1000.0     -1000.0    
      -1000.0     -1000.0     -1000.0     -1000.0     -1000.0     -1000.0     -1000.0     -1000.0     -1000.0     -1000.0    
      -1000.0     -1000.0     -1000.0     -1000.0     -1000.0     -1000.0     -1000.0     -1000.0     -1000.0     -1000.0    
      -1000.0     -1000.0     -1000.0     -1000.0     -1000.0     -1000.0     -1000.0     -1000.0     -1000.0     -1000.0    
      -1000.0     -1000.0     -1000.0     -1000.0     -1000.0     -1000.0     -1000.0     -1000.0     -1000.0     -1000.0    
      -1000.0     -1000.0     -1000.0     -1000.0     -1000.0     -1000.0     -1000.0     -1000.0     -1000.0     -1000.0    
      -1000.0     -1000.0     -1000.0     -1000.0     -1000.0     -1000.0     -1000.0     -1000.0     -1000.0     -1000.0    
      -1000.0     -1000.0     -1000.0     -1000.0     -1000.0     -1000.0     -1000.0     -1000.0     -1000.0     -1000.0    
      -1000.0     -1000.0     -1000.0     -1000.0     -1000.0     -1000.0     -1000.0     -1000.0     -1000.0     -1000.0    
      -1000.0     -1000.0     -1000.0     -1000.0     -1000.0     -1000.0     -1000.0     -1000.0     -1000.0     -1000.0    
      -1000.0     -1000.0     -1000.0     -1000.0     -1000.0     -1000.0     -1000.0     -1000.0     -1000.0     -1000.0    
      -1000.0     -1000.0     -1000.0     -1000.0     -1000.0     -1000.0     -1000.0     -1000.0     -1000.0     -1000.0    
      -1000.0     -1000.0     -1000.0     -1000.0     -1000.0     -1000.0     -1000.0     -1000.0     -1000.0     -1000.0    
      -1000.0     -1000.0     -1000.0     -1000.0     -1000.0     -1000.0     -1000.0     -1000.0     -1000.0     -1000.0    
      -1000.0     -1000.0    
  16  -1000.0     -1000.0     -1000.0     -1000.0     -1000.0     -1000.0     -1000.0     -1000.0     -1000.0     -1000.0    
      -1000.0     -1000.0     -1000.0     -1000.0     -1000.0     -1000.0     -1000.0     -1000.0     -1000.0     -1000.0    
      -1000.0     -1000.0     -1000.0     -1000.0     -1000.0     -1000.0     -1000.0     -1000.0     -1000.0     -1000.0    
      -1000.0     -1000.0     -1000.0     -1000.0     -1000.0     -1000.0     -1000.0     -1000.0     -1000.0     -1000.0    
      -1000.0     -1000.0     -1000.0     -1000.0     -1000.0     -1000.0     -1000.0     -1000.0     -1000.0     -1000.0    
      -1000.0     -1000.0     -1000.0     -1000.0     -1000.0     -1000.0     -1000.0     -1000.0     -1000.0     -1000.0    
      -1000.0     -1000.0     -1000.0     -1000.0     -1000.0     -1000.0     -1000.0     -1000.0     -1000.0     -1000.0    
      -1000.0     -1000.0     -1000.0     -1000.0     -1000.0     -1000.0     -1000.0     -1000.0     -1000.0     -1000.0    
      -1000.0     -1000.0     -1000.0     -1000.0     -1000.0     -1000.0     -1000.0     -1000.0     -1000.0     -1000.0    
      -1000.0     -1000.0     -1000.0     -1000.0     -1000.0     -1000.0     -1000.0     -1000.0     -1000.0     -1000.0    
      -1000.0     -1000.0     -1000.0     -1000.0     -1000.0     -1000.0     -1000.0     -1000.0     -1000.0     -1000.0    
      -1000.0     -1000.0     -1000.0     -1000.0     -1000.0     -1000.0     -1000.0     -1000.0     -1000.0     -1000.0    
      -1000.0     -1000.0     -1000.0     -1000.0     -1000.0     -1000.0     -1000.0     -1000.0     -1000.0     -1000.0    
      -1000.0     -1000.0     -1000.0     -1000.0     -1000.0     -1000.0     -1000.0     -1000.0     -1000.0     -1000.0    
      -1000.0     -1000.0     -1000.0     -1000.0     -1000.0     -1000.0     -1000.0     -1000.0     -1000.0     -1000.0    
      -1000.0     -1000.0     -1000.0     -1000.0     -1000.0     -1000.0     -1000.0     -1000.0     -1000.0     -1000.0    
      -1000.0     -1000.0     -1000.0     -1000.0     -1000.0     -1000.0     -1000.0     -1000.0     -1000.0     -1000.0    
      -1000.0     -1000.0     -1000.0     -1000.0     -1000.0     -1000.0     -1000.0     -1000.0     -1000.0     -1000.0    
      -1000.0     -1000.0    
  17  -1000.0     -1000.0     -1000.0     -1000.0     -1000.0     -1000.0     -1000.0     -1000.0     -1000.0     -1000.0    
      -1000.0     -1000.0     -1000.0     -1000.0     -1000.0     -1000.0     -1000.0     -1000.0     -1000.0     -1000.0    
      -1000.0     -1000.0     -1000.0     -1000.0     -1000.0     -1000.0     -1000.0     -1000.0     -1000.0     -1000.0    
      -1000.0     -1000.0     -1000.0     -1000.0     -1000.0     -1000.0     -1000.0     -1000.0     -1000.0     -1000.0    
      -1000.0     -1000.0     -1000.0     -1000.0     -1000.0     -1000.0     -1000.0     -1000.0     -1000.0     -1000.0    
      -1000.0     -1000.0     -1000.0     -1000.0     -1000.0     -1000.0     -1000.0     -1000.0     -1000.0     -1000.0    
      -1000.0     -1000.0     -1000.0     -1000.0     -1000.0     -1000.0     -1000.0     -1000.0     -1000.0     -1000.0    
      -1000.0     -1000.0     -1000.0     -1000.0     -1000.0     -1000.0     -1000.0     -1000.0     -1000.0     -1000.0    
      -1000.0     -1000.0     -1000.0     -1000.0     -1000.0     -1000.0     -1000.0     -1000.0     -1000.0     -1000.0    
      -1000.0     -1000.0     -1000.0     -1000.0     -1000.0     -1000.0     -1000.0     -1000.0     -1000.0     -1000.0    
      -1000.0     -1000.0     -1000.0     -1000.0     -1000.0     -1000.0     -1000.0     -1000.0     -1000.0     -1000.0    
      -1000.0     -1000.0     -1000.0     -1000.0     -1000.0     -1000.0     -1000.0     -1000.0     -1000.0     -1000.0    
      -1000.0     -1000.0     -1000.0     -1000.0     -1000.0     -1000.0     -1000.0     -1000.0     -1000.0     -1000.0    
      -1000.0     -1000.0     -1000.0     -1000.0     -1000.0     -1000.0     -1000.0     -1000.0     -1000.0     -1000.0    
      -1000.0     -1000.0     -1000.0     -1000.0     -1000.0     -1000.0     -1000.0     -1000.0     -1000.0     -1000.0    
      -1000.0     -1000.0     -1000.0     -1000.0     -1000.0     -1000.0     -1000.0     -1000.0     -1000.0     -1000.0    
      -1000.0     -1000.0     -1000.0     -1000.0     -1000.0     -1000.0     -1000.0     -1000.0     -1000.0     -1000.0    
      -1000.0     -1000.0     -1000.0     -1000.0     -1000.0     -1000.0     -1000.0     -1000.0     -1000.0     -1000.0    
      -1000.0     -1000.0    
  18  -1000.0     -1000.0     -1000.0     -1000.0     -1000.0     -1000.0     -1000.0     -1000.0     -1000.0     -1000.0    
      -1000.0     -1000.0     -1000.0     -1000.0     -1000.0     -1000.0     -1000.0     -1000.0     -1000.0     -1000.0    
      -1000.0     -1000.0     -1000.0     -1000.0     -1000.0     -1000.0     -1000.0     -1000.0     -1000.0     -1000.0    
      -1000.0     -1000.0     -1000.0     -1000.0     -1000.0     -1000.0     -1000.0     -1000.0     -1000.0     -1000.0    
      -1000.0     -1000.0     -1000.0     -1000.0     -1000.0     -1000.0     -1000.0     -1000.0     -1000.0     -1000.0    
      -1000.0     -1000.0     -1000.0     -1000.0     -1000.0     -1000.0     -1000.0     -1000.0     -1000.0     -1000.0    
      -1000.0     -1000.0     -1000.0     -1000.0     -1000.0     -1000.0     -1000.0     -1000.0     -1000.0     -1000.0    
      -1000.0     -1000.0     -1000.0     -1000.0     -1000.0     -1000.0     -1000.0     -1000.0     -1000.0     -1000.0    
      -1000.0     -1000.0     -1000.0     -1000.0     -1000.0     -1000.0     -1000.0     -1000.0     -1000.0     -1000.0    
      -1000.0     -1000.0     -1000.0     -1000.0     -1000.0     -1000.0     -1000.0     -1000.0     -1000.0     -1000.0    
      -1000.0     -1000.0     -1000.0     -1000.0     -1000.0     -1000.0     -1000.0     -1000.0     -1000.0     -1000.0    
      -1000.0     -1000.0     -1000.0     -1000.0     -1000.0     -1000.0     -1000.0     -1000.0     -1000.0     -1000.0    
      -1000.0     -1000.0     -1000.0     -1000.0     -1000.0     -1000.0     -1000.0     -1000.0     -1000.0     -1000.0    
      -1000.0     -1000.0     -1000.0     -1000.0     -1000.0     -1000.0     -1000.0     -1000.0     -1000.0     -1000.0    
      -1000.0     -1000.0     -1000.0     -1000.0     -1000.0     -1000.0     -1000.0     -1000.0     -1000.0     -1000.0    
      -1000.0     -1000.0     -1000.0     -1000.0     -1000.0     -1000.0     -1000.0     -1000.0     -1000.0     -1000.0    
      -1000.0     -1000.0     -1000.0     -1000.0     -1000.0     -1000.0     -1000.0     -1000.0     -1000.0     -1000.0    
      -1000.0     -1000.0     -1000.0     -1000.0     -1000.0     -1000.0     -1000.0     -1000.0     -1000.0     -1000.0    
      -1000.0     -1000.0    
  19  -1000.0     -1000.0     -1000.0     -1000.0     -1000.0     -1000.0     -1000.0     -1000.0     -1000.0     -1000.0    
      -1000.0     -1000.0     -1000.0     -1000.0     -1000.0     -1000.0     -1000.0     -1000.0     -1000.0     -1000.0    
      -1000.0     -1000.0     -1000.0     -1000.0     -1000.0     -1000.0     -1000.0     -1000.0     -1000.0     -1000.0    
      -1000.0     -1000.0     -1000.0     -1000.0     -1000.0     -1000.0     -1000.0     -1000.0     -1000.0     -1000.0    
      -1000.0     -1000.0     -1000.0     -1000.0     -1000.0     -1000.0     -1000.0     -1000.0     -1000.0     -1000.0    
      -1000.0     -1000.0     -1000.0     -1000.0     -1000.0     -1000.0     -1000.0     -1000.0     -1000.0     -1000.0    
      -1000.0     -1000.0     -1000.0     -1000.0     -1000.0     -1000.0     -1000.0     -1000.0     -1000.0     -1000.0    
      -1000.0     -1000.0     -1000.0     -1000.0     -1000.0     -1000.0     -1000.0     -1000.0     -1000.0     -1000.0    
      -1000.0     -1000.0     -1000.0     -1000.0     -1000.0     -1000.0     -1000.0     -1000.0     -1000.0     -1000.0    
      -1000.0     -1000.0     -1000.0     -1000.0     -1000.0     -1000.0     -1000.0     -1000.0     -1000.0     -1000.0    
      -1000.0     -1000.0     -1000.0     -1000.0     -1000.0     -1000.0     -1000.0     -1000.0     -1000.0     -1000.0    
      -1000.0     -1000.0     -1000.0     -1000.0     -1000.0     -1000.0     -1000.0     -1000.0     -1000.0     -1000.0    
      -1000.0     -1000.0     -1000.0     -1000.0     -1000.0     -1000.0     -1000.0     -1000.0     -1000.0     -1000.0    
      -1000.0     -1000.0     -1000.0     -1000.0     -1000.0     -1000.0     -1000.0     -1000.0     -1000.0     -1000.0    
      -1000.0     -1000.0     -1000.0     -1000.0     -1000.0     -1000.0     -1000.0     -1000.0     -1000.0     -1000.0    
      -1000.0     -1000.0     -1000.0     -1000.0     -1000.0     -1000.0     -1000.0     -1000.0     -1000.0     -1000.0    
      -1000.0     -1000.0     -1000.0     -1000.0     -1000.0     -1000.0     -1000.0     -1000.0     -1000.0     -1000.0    
      -1000.0     -1000.0     -1000.0     -1000.0     -1000.0     -1000.0     -1000.0     -1000.0     -1000.0     -1000.0    
      -1000.0     -1000.0    
  20  -1000.0     -1000.0     -1000.0     -1000.0     -1000.0     -1000.0     -1000.0     -1000.0     -1000.0     -1000.0    
      -1000.0     -1000.0     -1000.0     -1000.0     -1000.0     -1000.0     -1000.0     -1000.0     -1000.0     -1000.0    
      -1000.0     -1000.0     -1000.0     -1000.0     -1000.0     -1000.0     -1000.0     -1000.0     -1000.0     -1000.0    
      -1000.0     -1000.0     -1000.0     -1000.0     -1000.0     -1000.0     -1000.0     -1000.0     -1000.0     -1000.0    
      -1000.0     -1000.0     -1000.0     -1000.0     -1000.0     -1000.0     -1000.0     -1000.0     -1000.0     -1000.0    
      -1000.0     -1000.0     -1000.0     -1000.0     -1000.0     -1000.0     -1000.0     -1000.0     -1000.0     -1000.0    
      -1000.0     -1000.0     -1000.0     -1000.0     -1000.0     -1000.0     -1000.0     -1000.0     -1000.0     -1000.0    
      -1000.0     -1000.0     -1000.0     -1000.0     -1000.0     -1000.0     -1000.0     -1000.0     -1000.0     -1000.0    
      -1000.0     -1000.0     -1000.0     -1000.0     -1000.0     -1000.0     -1000.0     -1000.0     -1000.0     -1000.0    
      -1000.0     -1000.0     -1000.0     -1000.0     -1000.0     -1000.0     -1000.0     -1000.0     -1000.0     -1000.0    
      -1000.0     -1000.0     -1000.0     -1000.0     -1000.0     -1000.0     -1000.0     -1000.0     -1000.0     -1000.0    
      -1000.0     -1000.0     -1000.0     -1000.0     -1000.0     -1000.0     -1000.0     -1000.0     -1000.0     -1000.0    
      -1000.0     -1000.0     -1000.0     -1000.0     -1000.0     -1000.0     -1000.0     -1000.0     -1000.0     -1000.0    
      -1000.0     -1000.0     -1000.0     -1000.0     -1000.0     -1000.0     -1000.0     -1000.0     -1000.0     -1000.0    
      -1000.0     -1000.0     -1000.0     -1000.0     -1000.0     -1000.0     -1000.0     -1000.0     -1000.0     -1000.0    
      -1000.0     -1000.0     -1000.0     -1000.0     -1000.0     -1000.0     -1000.0     -1000.0     -1000.0     -1000.0    
      -1000.0     -1000.0     -1000.0     -1000.0     -1000.0     -1000.0     -1000.0     -1000.0     -1000.0     -1000.0    
      -1000.0     -1000.0     -1000.0     -1000.0     -1000.0     -1000.0     -1000.0     -1000.0     -1000.0     -1000.0    
      -1000.0     -1000.0    
  21  -1000.0     -1000.0     -1000.0     -1000.0     -1000.0     -1000.0     -1000.0     -1000.0     -1000.0     -1000.0    
      -1000.0     -1000.0     -1000.0     -1000.0     -1000.0     -1000.0     -1000.0     -1000.0     -1000.0     -1000.0    
      -1000.0     -1000.0     -1000.0     -1000.0     -1000.0     -1000.0     -1000.0     -1000.0     -1000.0     -1000.0    
[...]
        134.5       134.4       134.3       134.1       134.0       133.9       133.8       133.7       133.5       133.4    
        133.3       133.2       133.1       132.9       132.8       132.7       132.6       132.4       132.3       132.2    
        132.1       132.0       131.8       131.7       131.6       131.5       131.3       131.2       131.1       131.0    
        130.8       130.7       130.6       130.5       130.3       130.2       130.1       130.0       129.8       129.7    
        129.6       129.5       129.3       129.2       129.1       128.9       128.8       128.7       128.6       128.4    
        128.3       128.2       128.0       127.9       127.8       127.7       127.5       127.4       127.3       127.1    
        127.0       126.9       126.7       126.6       126.5       126.3       126.2       126.1       125.9       125.8    
        125.7       125.6       125.4       125.3       125.1       125.0       124.9       124.7       124.6       124.5    
        124.3       124.2       124.1       123.9       123.8       123.7       123.5       123.4       123.2       123.1    
        123.0       122.8       122.7       122.6       122.4       122.3       122.1       122.0       121.9       121.7    
        121.6       121.4       121.3       121.2       121.0       120.9       120.7       120.6       120.4       120.3    
        120.2       120.0       119.9       119.7       119.6       119.4       119.3       119.1       119.0       118.8    
        118.7       118.6       118.4       118.3       118.1       118.0       117.8       117.7       117.5       117.4    
        117.2       117.1       116.9       116.8       116.6       116.5       116.3       116.2       116.0       115.9    
        115.7       115.6       115.4       115.2       115.1       114.9       114.8       114.6       114.5       114.3    
        114.2       114.0    
  85    138.0       137.9       137.8       137.7       137.5       137.4       137.3       137.2       137.1       137.0    
        136.8       136.7       136.6       136.5       136.4       136.3       136.1       136.0       135.9       135.8    
        135.7       135.6       135.4       135.3       135.2       135.1       135.0       134.9       134.7       134.6    
        134.5       134.4       134.3       134.1       134.0       133.9       133.8       133.7       133.5       133.4    
        133.3       133.2       133.1       132.9       132.8       132.7       132.6       132.4       132.3       132.2    
        132.1       132.0       131.8       131.7       131.6       131.5       131.3       131.2       131.1       131.0    
        130.8       130.7       130.6       130.5       130.3       130.2       130.1       130.0       129.8       129.7    
        129.6       129.5       129.3       129.2       129.1       128.9       128.8       128.7       128.6       128.4    
        128.3       128.2       128.0       127.9       127.8       127.7       127.5       127.4       127.3       127.1    
        127.0       126.9       126.7       126.6       126.5       126.3       126.2       126.1       125.9       125.8    
        125.7       125.6       125.4       125.3       125.1       125.0       124.9       124.7       124.6       124.5    
        124.3       124.2       124.1       123.9       123.8       123.7       123.5       123.4       123.2       123.1    
        123.0       122.8       122.7       122.6       122.4       122.3       122.1       122.0       121.9       121.7    
        121.6       121.4       121.3       121.2       121.0       120.9       120.7       120.6       120.4       120.3    
        120.2       120.0       119.9       119.7       119.6       119.4       119.3       119.1       119.0       118.8    
        118.7       118.6       118.4       118.3       118.1       118.0       117.8       117.7       117.5       117.4    
        117.2       117.1       116.9       116.8       116.6       116.5       116.3       116.2       116.0       115.9    
        115.7       115.6       115.4       115.2       115.1       114.9       114.8       114.6       114.5       114.3    
        114.2       114.0    
  86    138.0       137.9       137.8       137.7       137.5       137.4       137.3       137.2       137.1       137.0    
        136.8       136.7       136.6       136.5       136.4       136.3       136.1       136.0       135.9       135.8    
        135.7       135.6       135.4       135.3       135.2       135.1       135.0       134.9       134.7       134.6    
        134.5       134.4       134.3       134.1       134.0       133.9       133.8       133.7       133.5       133.4    
        133.3       133.2       133.1       132.9       132.8       132.7       132.6       132.4       132.3       132.2    
        132.1       132.0       131.8       131.7       131.6       131.5       131.3       131.2       131.1       131.0    
        130.8       130.7       130.6       130.5       130.3       130.2       130.1       130.0       129.8       129.7    
        129.6       129.5       129.3       129.2       129.1       128.9       128.8       128.7       128.6       128.4    
        128.3       128.2       128.0       127.9       127.8       127.7       127.5       127.4       127.3       127.1    
        127.0       126.9       126.7       126.6       126.5       126.3       126.2       126.1       125.9       125.8    
        125.7       125.6       125.4       125.3       125.1       125.0       124.9       124.7       124.6       124.5    
        124.3       124.2       124.1       123.9       123.8       123.7       123.5       123.4       123.2       123.1    
        123.0       122.8       122.7       122.6       122.4       122.3       122.1       122.0       121.9       121.7    
        121.6       121.4       121.3       121.2       121.0       120.9       120.7       120.6       120.4       120.3    
        120.2       120.0       119.9       119.7       119.6       119.4       119.3       119.1       119.0       118.8    
        118.7       118.6       118.4       118.3       118.1       118.0       117.8       117.7       117.5       117.4    
        117.2       117.1       116.9       116.8       116.6       116.5       116.3       116.2       116.0       115.9    
        115.7       115.6       115.4       115.2       115.1       114.9       114.8       114.6       114.5       114.3    
        114.2       114.0    
  87    138.0       137.9       137.8       137.7       137.5       137.4       137.3       137.2       137.1       137.0    
        136.8       136.7       136.6       136.5       136.4       136.3       136.1       136.0       135.9       135.8    
        135.7       135.6       135.4       135.3       135.2       135.1       135.0       134.9       134.7       134.6    
        134.5       134.4       134.3       134.1       134.0       133.9       133.8       133.7       133.5       133.4    
        133.3       133.2       133.1       132.9       132.8       132.7       132.6       132.4       132.3       132.2    
        132.1       132.0       131.8       131.7       131.6       131.5       131.3       131.2       131.1       131.0    
        130.8       130.7       130.6       130.5       130.3       130.2       130.1       130.0       129.8       129.7    
        129.6       129.5       129.3       129.2       129.1       128.9       128.8       128.7       128.6       128.4    
        128.3       128.2       128.0       127.9       127.8       127.7       127.5       127.4       127.3       127.1    
        127.0       126.9       126.7       126.6       126.5       126.3       126.2       126.1       125.9       125.8    
        125.7       125.6       125.4       125.3       125.1       125.0       124.9       124.7       124.6       124.5    
        124.3       124.2       124.1       123.9       123.8       123.7       123.5       123.4       123.2       123.1    
        123.0       122.8       122.7       122.6       122.4       122.3       122.1       122.0       121.9       121.7    
        121.6       121.4       121.3       121.2       121.0       120.9       120.7       120.6       120.4       120.3    
        120.2       120.0       119.9       119.7       119.6       119.4       119.3       119.1       119.0       118.8    
        118.7       118.6       118.4       118.3       118.1       118.0       117.8       117.7       117.5       117.4    
        117.2       117.1       116.9       116.8       116.6       116.5       116.3       116.2       116.0       115.9    
        115.7       115.6       115.4       115.2       115.1       114.9       114.8       114.6       114.5       114.3    
        114.2       114.0    
  88    138.0       137.9       137.8       137.7       137.5       137.4       137.3       137.2       137.1       137.0    
        136.8       136.7       136.6       136.5       136.4       136.3       136.1       136.0       135.9       135.8    
        135.7       135.6       135.4       135.3       135.2       135.1       135.0       134.9       134.7       134.6    
        134.5       134.4       134.3       134.1       134.0       133.9       133.8       133.7       133.5       133.4    
        133.3       133.2       133.1       132.9       132.8       132.7       132.6       132.4       132.3       132.2    
        132.1       132.0       131.8       131.7       131.6       131.5       131.3       131.2       131.1       131.0    
        130.8       130.7       130.6       130.5       130.3       130.2       130.1       130.0       129.8       129.7    
        129.6       129.5       129.3       129.2       129.1       128.9       128.8       128.7       128.6       128.4    
        128.3       128.2       128.0       127.9       127.8       127.7       127.5       127.4       127.3       127.1    
        127.0       126.9       126.7       126.6       126.5       126.3       126.2       126.1       125.9       125.8    
        125.7       125.6       125.4       125.3       125.1       125.0       124.9       124.7       124.6       124.5    
        124.3       124.2       124.1       123.9       123.8       123.7       123.5       123.4       123.2       123.1    
        123.0       122.8       122.7       122.6       122.4       122.3       122.1       122.0       121.9       121.7    
        121.6       121.4       121.3       121.2       121.0       120.9       120.7       120.6       120.4       120.3    
        120.2       120.0       119.9       119.7       119.6       119.4       119.3       119.1       119.0       118.8    
        118.7       118.6       118.4       118.3       118.1       118.0       117.8       117.7       117.5       117.4    
        117.2       117.1       116.9       116.8       116.6       116.5       116.3       116.2       116.0       115.9    
        115.7       115.6       115.4       115.2       115.1       114.9       114.8       114.6       114.5       114.3    
        114.2       114.0    
  89    138.0       137.9       137.8       137.7       137.5       137.4       137.3       137.2       137.1       137.0    
        136.8       136.7       136.6       136.5       136.4       136.3       136.1       136.0       135.9       135.8    
        135.7       135.6       135.4       135.3       135.2       135.1       135.0       134.9       134.7       134.6    
        134.5       134.4       134.3       134.1       134.0       133.9       133.8       133.7       133.5       133.4    
        133.3       133.2       133.1       132.9       132.8       132.7       132.6       132.4       132.3       132.2    
        132.1       132.0       131.8       131.7       131.6       131.5       131.3       131.2       131.1       131.0    
        130.8       130.7       130.6       130.5       130.3       130.2       130.1       130.0       129.8       129.7    
        129.6       129.5       129.3       129.2       129.1       128.9       128.8       128.7       128.6       128.4    
        128.3       128.2       128.0       127.9       127.8       127.7       127.5       127.4       127.3       127.1    
        127.0       126.9       126.7       126.6       126.5       126.3       126.2       126.1       125.9       125.8    
        125.7       125.6       125.4       125.3       125.1       125.0       124.9       124.7       124.6       124.5    
        124.3       124.2       124.1       123.9       123.8       123.7       123.5       123.4       123.2       123.1    
        123.0       122.8       122.7       122.6       122.4       122.3       122.1       122.0       121.9       121.7    
        121.6       121.4       121.3       121.2       121.0       120.9       120.7       120.6       120.4       120.3    
        120.2       120.0       119.9       119.7       119.6       119.4       119.3       119.1       119.0       118.8    
        118.7       118.6       118.4       118.3       118.1       118.0       117.8       117.7       117.5       117.4    
        117.2       117.1       116.9       116.8       116.6       116.5       116.3       116.2       116.0       115.9    
        115.7       115.6       115.4       115.2       115.1       114.9       114.8       114.6       114.5       114.3    
        114.2       114.0    
  90    138.0       137.9       137.8       137.7       137.5       137.4       137.3       137.2       137.1       137.0    
        136.8       136.7       136.6       136.5       136.4       136.3       136.1       136.0       135.9       135.8    
        135.7       135.6       135.4       135.3       135.2       135.1       135.0       134.9       134.7       134.6    
        134.5       134.4       134.3       134.1       134.0       133.9       133.8       133.7       133.5       133.4    
        133.3       133.2       133.1       132.9       132.8       132.7       132.6       132.4       132.3       132.2    
        132.1       132.0       131.8       131.7       131.6       131.5       131.3       131.2       131.1       131.0    
        130.8       130.7       130.6       130.5       130.3       130.2       130.1       130.0       129.8       129.7    
        129.6       129.5       129.3       129.2       129.1       128.9       128.8       128.7       128.6       128.4    
        128.3       128.2       128.0       127.9       127.8       127.7       127.5       127.4       127.3       127.1    
        127.0       126.9       126.7       126.6       126.5       126.3       126.2       126.1       125.9       125.8    
        125.7       125.6       125.4       125.3       125.1       125.0       124.9       124.7       124.6       124.5    
        124.3       124.2       124.1       123.9       123.8       123.7       123.5       123.4       123.2       123.1    
        123.0       122.8       122.7       122.6       122.4       122.3       122.1       122.0       121.9       121.7    
        121.6       121.4       121.3       121.2       121.0       120.9       120.7       120.6       120.4       120.3    
        120.2       120.0       119.9       119.7       119.6       119.4       119.3       119.1       119.0       118.8    
        118.7       118.6       118.4       118.3       118.1       118.0       117.8       117.7       117.5       117.4    
        117.2       117.1       116.9       116.8       116.6       116.5       116.3       116.2       116.0       115.9    
        115.7       115.6       115.4       115.2       115.1       114.9       114.8       114.6       114.5       114.3    
        114.2       114.0    
  91    138.0       137.9       137.8       137.7       137.5       137.4       137.3       137.2       137.1       137.0    
        136.8       136.7       136.6       136.5       136.4       136.3       136.1       136.0       135.9       135.8    
        135.7       135.6       135.4       135.3       135.2       135.1       135.0       134.9       134.7       134.6    
        134.5       134.4       134.3       134.1       134.0       133.9       133.8       133.7       133.5       133.4    
        133.3       133.2       133.1       132.9       132.8       132.7       132.6       132.4       132.3       132.2    
        132.1       132.0       131.8       131.7       131.6       131.5       131.3       131.2       131.1       131.0    
        130.8       130.7       130.6       130.5       130.3       130.2       130.1       130.0       129.8       129.7    
        129.6       129.5       129.3       129.2       129.1       128.9       128.8       128.7       128.6       128.4    
        128.3       128.2       128.0       127.9       127.8       127.7       127.5       127.4       127.3       127.1    
        127.0       126.9       126.7       126.6       126.5       126.3       126.2       126.1       125.9       125.8    
        125.7       125.6       125.4       125.3       125.1       125.0       124.9       124.7       124.6       124.5    
        124.3       124.2       124.1       123.9       123.8       123.7       123.5       123.4       123.2       123.1    
        123.0       122.8       122.7       122.6       122.4       122.3       122.1       122.0       121.9       121.7    
        121.6       121.4       121.3       121.2       121.0       120.9       120.7       120.6       120.4       120.3    
        120.2       120.0       119.9       119.7       119.6       119.4       119.3       119.1       119.0       118.8    
        118.7       118.6       118.4       118.3       118.1       118.0       117.8       117.7       117.5       117.4    
        117.2       117.1       116.9       116.8       116.6       116.5       116.3       116.2       116.0       115.9    
        115.7       115.6       115.4       115.2       115.1       114.9       114.8       114.6       114.5       114.3    
        114.2       114.0    

 HEAD WILL BE SAVED ON UNIT   51 AT END OF TIME STEP    1, STRESS PERIOD    1

 DRAWDOWN WILL BE SAVED ON UNIT   52 AT END OF TIME STEP    1, STRESS PERIOD    1
1
  VOLUMETRIC BUDGET FOR ENTIRE MODEL AT END OF TIME STEP    1, STRESS PERIOD   1
  ------------------------------------------------------------------------------

     CUMULATIVE VOLUMES      L**3       RATES FOR THIS TIME STEP      L**3/T
     ------------------                 ------------------------

           IN:                                      IN:
           ---                                      ---
             STORAGE     =           0.0000               STORAGE     =           0.0000
       CONSTANT HEAD     =259427631104.0000         CONSTANT HEAD     =        2594.2764

                TOTAL IN =259427631104.0000                  TOTAL IN =        2594.2764

          OUT:                                     OUT:
          ----                                     ----
             STORAGE     =           0.0000               STORAGE     =           0.0000
       CONSTANT HEAD     =259519971328.0000         CONSTANT HEAD     =        2595.1997

               TOTAL OUT =259519971328.0000                 TOTAL OUT =        2595.1997

                IN - OUT =   -92340224.0000                  IN - OUT =          -0.9233

     PERCENT DISCREPANCY =          -0.04         PERCENT DISCREPANCY =          -0.04






         TIME SUMMARY AT END OF TIME STEP    1 IN STRESS PERIOD    1
                    SECONDS     MINUTES      HOURS       DAYS        YEARS
                    -----------------------------------------------------------
   TIME STEP LENGTH 8.64000E+12 1.44000E+11 2.40000E+09 1.00000E+08 2.73785E+05
 STRESS PERIOD TIME 8.64000E+12 1.44000E+11 2.40000E+09 1.00000E+08 2.73785E+05
         TOTAL TIME 8.64000E+12 1.44000E+11 2.40000E+09 1.00000E+08 2.73785E+05
1

 Run end date and time (yyyy/mm/dd hh:mm:ss): 2023/03/25  8:47:21
 Elapsed run time:  0.786 Seconds

