 LISTING FILE: incised_mt3.list
                         UNIT  16

 OPENING mt3d_link.ftl
 FILE TYPE:FTL   UNIT  10

 OPENING incised_mt3.btn
 FILE TYPE:BTN   UNIT  31

 OPENING incised_mt3.adv
 FILE TYPE:ADV   UNIT  32

 OPENING incised_mt3.gcg
 FILE TYPE:GCG   UNIT  35

 OPENING incised_mt3.dsp
 FILE TYPE:DSP   UNIT  33

 OPENING incised_mt3.ssm
 FILE TYPE:SSM   UNIT  34

                              +++++++++++++++++++++++++++++++++++++++++++++++++++++++++++++++++++++++
                              +                                                                     +
                              +                               MT3DMS                                +
                              +             A Modular 3D Multi-Species Transport Model              +
                              +    For Simulation of Advection, Dispersion and Chemical Reactions   +
                              +                of Contaminants in Groundwater Systems               +
                              +                                                                     +
                              +++++++++++++++++++++++++++++++++++++++++++++++++++++++++++++++++++++++

  ----- 
 | M T | ## BTN for MT3DMS, generated by Flopy.                                          
 | 3 D | ##                                                                              
  ----- 
 THE TRANSPORT MODEL CONSISTS OF     3 LAYER(S)   91 ROW(S)  182 COLUMN(S)
 NUMBER OF STRESS PERIOD(S) FOR TRANSPORT SIMULATION =    1
 NUMBER OF ALL COMPONENTS INCLUDED IN SIMULATION =    1
 NUMBER OF MOBILE COMPONENTS INCLUDED IN SIMULATION =    1
 UNIT FOR TIME IS D   ;  UNIT FOR LENGTH IS M   ;  UNIT FOR MASS IS g   
 OPTIONAL PACKAGES INCLUDED IN CURRENT SIMULATION:
  o ADV   ON UNIT 32
  o DSP   ON UNIT 33
  o SSM   ON UNIT 34
  o GCG   ON UNIT 35

 BTN5 -- BASIC TRANSPORT PACKAGE, VERSION 5, FEBRUARY 2010, INPUT READ FROM UNIT 31
     762398 ELEMENTS OF THE  X ARRAY USED BY THE BTN PACKAGE
      49689 ELEMENTS OF THE IX ARRAY USED BY THE BTN PACKAGE

 FMI5 -- FLOW MODEL INTERFACE PACKAGE, VERSION 5, FEBRUARY 2010, INPUT READ FROM UNIT 10
 FLOW MODEL IS STEADY-STATE

 ADV5 -- ADVECTION PACKAGE, VERSION 5, FEBRUARY 2010, INPUT READ FROM UNIT 32
 ADVECTION IS SOLVED WITH THE UPSTREAM FINITE DIFFERENCE SCHEME
 COURANT NUMBER ALLOWED IN SOLVING THE ADVECTION TERM = 0.750    
          0 ELEMENTS OF THE  X ARRAY USED BY THE ADV PACKAGE
          0 ELEMENTS OF THE IX ARRAY USED BY THE ADV PACKAGE

 DSP5 -- DISPERSION PACKAGE, VERSION 5, FEBRUARY 2010, INPUT READ FROM UNIT 33
     546552 ELEMENTS OF THE  X ARRAY USED BY THE DSP PACKAGE
          0 ELEMENTS OF THE IX ARRAY USED BY THE DSP PACKAGE

 SSM5 -- SINK & SOURCE MIXING PACKAGE, VERSION 5, FEBRUARY 2010, INPUT READ FROM UNIT 34
 HEADER LINE OF THE SSM PACKAGE INPUT FILE:
  F F F F F F F F F F F F F F F F                                                                                                                                                                        
 MAJOR STRESS COMPONENTS PRESENT IN THE FLOW MODEL:
 MAXIMUM NUMBER OF POINT SINKS/SOURCES =    1930
      25090 ELEMENTS OF THE  X ARRAY USED BY THE SSM PACKAGE
          0 ELEMENTS OF THE IX ARRAY BY THE SSM PACKAGE

 GCG5 -- GENERALIZED CONJUGATE GRADIENT SOLVER PACKAGE, VERSION 5, FEBRUARY 2010 INPUT READ FROM UNIT 35
 MAXIMUM OF    1 OUTER ITERATIONS
        AND  500 INNER ITERATIONS ALLOWED FOR CLOSURE
 THE PRECONDITIONING TYPE SELECTED IS MODIFIED INCOMPLETE CHOLESKY (MIC).
 DISPERSION CROSS TERMS LUMPED INTO RIGHT-HAND-SIDE
    1093592 ELEMENTS OF THE  X ARRAY USED BY THE GCG PACKAGE
       1500 ELEMENTS OF THE IX ARRAY USED BY THE GCG PACKAGE

 ..........................................
 ELEMENTS OF THE  X ARRAY USED =   2427633
 ELEMENTS OF THE IX ARRAY USED =     51190
 ..........................................

 LAYER NUMBER  AQUIFER TYPE
 ------------  ------------
       1            1
       2            1
       3            1
                                       WIDTH ALONG ROWS (DELR)  =   43.51600    
                                       WIDTH ALONG COLS (DELC)  =   43.51600    
                                       TOP ELEV. OF 1ST LAYER   =   200.0000    

                     CELL THICKNESS (DZ)      FOR LAYER  1 READ ON UNIT 31 USING FORMAT: "         (182E15.6) "
                     ------------------------------------------------------------------------------------------

                     CELL THICKNESS (DZ)      FOR LAYER  2 READ ON UNIT 31 USING FORMAT: "         (182E15.6) "
                     ------------------------------------------------------------------------------------------

                     CELL THICKNESS (DZ)      FOR LAYER  3 READ ON UNIT 31 USING FORMAT: "         (182E15.6) "
                     ------------------------------------------------------------------------------------------

                     POROSITY                 FOR LAYER  1 READ ON UNIT 31 USING FORMAT: "         (182E15.6) "
                     ------------------------------------------------------------------------------------------

                     POROSITY                 FOR LAYER  2 READ ON UNIT 31 USING FORMAT: "         (182E15.6) "
                     ------------------------------------------------------------------------------------------

                     POROSITY                 FOR LAYER  3 READ ON UNIT 31 USING FORMAT: "         (182E15.6) "
                     ------------------------------------------------------------------------------------------

                     CONCN. BOUNDARY ARRAY    FOR LAYER  1 READ ON UNIT 31 USING FORMAT: "           (182I10) "
                     ------------------------------------------------------------------------------------------

                     CONCN. BOUNDARY ARRAY    FOR LAYER  2 READ ON UNIT 31 USING FORMAT: "           (182I10) "
                     ------------------------------------------------------------------------------------------

                     CONCN. BOUNDARY ARRAY    FOR LAYER  3 READ ON UNIT 31 USING FORMAT: "           (182I10) "
                     ------------------------------------------------------------------------------------------
                                       INITIAL CONC.: COMP.  01 =   0.000000     FOR LAYER  1
                                       INITIAL CONC.: COMP.  01 =   0.000000     FOR LAYER  2
                                       INITIAL CONC.: COMP.  01 =   0.000000     FOR LAYER  3

 VALUE INDICATING INACTIVE CONCENTRATION CELLS =   0.1000000E+31
 MINIMUM SATURATED THICKNESS [THKMIN] ALLOWED =  0.1000 OF TOTAL CELL THICKNESS
 WARNING: [THKMIN] MUST BE < OR = 0.05;
          RESET TO DEFAULT OF 0.01 OR 1% OF TOTAL CELL THICKNESS


 OUTPUT CONTROL OPTIONS
 ----------------------

 DO NOT PRINT CELL CONCENTRATION
 DO NOT PRINT PARTICLE NUMBER IN EACH CELL
 DO NOT PRINT RETARDATION FACTOR
 DO NOT PRINT DISPERSION COEFFICIENT
 SAVE DISSOLVED PHASE CONCENTRATIONS IN UNFORMATTED FILES [MT3Dnnn.UCN]
  FOR EACH SPECIES ON UNITS 201 AND ABOVE

 NUMBER OF TIMES AT WHICH SIMULATION RESULTS ARE SAVED =    0

 NUMBER OF OBSERVATION POINTS =    0

 SAVE ONE-LINE SUMMARY OF MASS BUDGETS IN FILES [MT3Dnnn.MAS]
  FOR EACH SPECIES ON UNITS 601 AND ABOVE, EVERY  1 TRANSPORT STEPS

 MAXIMUM LENGTH ALONG THE X (J) AXIS =   7919.927    
 MAXIMUM LENGTH ALONG THE Y (I) AXIS =   3959.961    
 MAXIMUM LENGTH ALONG THE Z (K) AXIS =   150.0000    


 ADVECTION SOLUTION OPTIONS
 --------------------------

 ADVECTION IS SOLVED WITH THE UPSTREAM FINITE DIFFERENCE SCHEME
 COURANT NUMBER ALLOWED IN SOLVING THE ADVECTION TERM = 0.750    


 DISPERSION INPUT PARAMETERS
 ---------------------------

                                       LONG. DISPERSIVITY (AL)  =   100.0000     FOR LAYER  1
                                       LONG. DISPERSIVITY (AL)  =   100.0000     FOR LAYER  2
                                       LONG. DISPERSIVITY (AL)  =   100.0000     FOR LAYER  3
                                       H. TRANS./LONG. DISP.    =  0.1000000    
                                       V. TRANS./LONG. DISP.    =   0.000000    
                                       DIFFUSION COEFFICIENT    =   0.000000    



                                               SOLUTION BY THE GENERALIZED CONJUGATE GRADIENT METHOD
                                               -----------------------------------------------------
                                     MAXIMUM OUTER ITERATIONS ALLOWED FOR CLOSURE =        1
                                     MAXIMUM INNER ITERATIONS ALLOWED FOR CLOSURE =      500
                                                    PRECONDITIONING TYPE SELECTED =    3
                                                           ACCELERATION PARAMETER =     1.0000    
                                       CONCENTRATION CHANGE CRITERION FOR CLOSURE =    0.10000E-03
                                       GCG CONCENTRATION CHANGE PRINTOUT INTERVAL =      999


                                   ++++++++++++++++++++++++++++++++++++++++++++++++++++++++++++++
                                                       STRESS PERIOD NO.  001
                                   ++++++++++++++++++++++++++++++++++++++++++++++++++++++++++++++


 LENGTH OF CURRENT STRESS PERIOD =  0.1000000E+09
 NUMBER OF TIME STEPS FOR CURRENT STRESS PERIOD =    1
 TIME STEP MULTIPLIER USED IN FLOW SOLUTION =   1.000000    

 ***Type of Transport Simulation is TRANSIENT

 USER-SPECIFIED TRANSPORT STEPSIZE =   0.000000    D   
 MAXIMUM NUMBER OF TRANSPORT STEPS ALLOWED  IN ONE FLOW TIME STEP =     50000
 MULTIPLIER FOR SUCCESSIVE TRANSPORT STEPS  [USED IN IMPLICIT SCHEMES] =     2.000
 MAXIMUM TRANSPORT STEP SIZE  [USED IN IMPLICIT SCHEMES] =  0.1000000E+08D   

       NO    LAYER   ROW   COLUMN   CONCENTRATION       TYPE            COMPONENT
       1       1      33      63       1.000000         CONSTANT CONC.      1
       2       1      33      64       1.000000         CONSTANT CONC.      1
       3       1      33      65       1.000000         CONSTANT CONC.      1
       4       1      33      66       1.000000         CONSTANT CONC.      1
       5       1      33      67       1.000000         CONSTANT CONC.      1
       6       1      33      68       1.000000         CONSTANT CONC.      1
       7       1      33      69       1.000000         CONSTANT CONC.      1
       8       1      33      70       1.000000         CONSTANT CONC.      1
       9       1      33      71       1.000000         CONSTANT CONC.      1
      10       1      33      72       1.000000         CONSTANT CONC.      1
      11       1      33      73       1.000000         CONSTANT CONC.      1
      12       1      33      74       1.000000         CONSTANT CONC.      1
      13       1      33      75       1.000000         CONSTANT CONC.      1
      14       1      33      76       1.000000         CONSTANT CONC.      1
      15       1      33      77       1.000000         CONSTANT CONC.      1
      16       1      33      78       1.000000         CONSTANT CONC.      1
      17       1      33      79       1.000000         CONSTANT CONC.      1
      18       1      33      80       1.000000         CONSTANT CONC.      1
      19       1      33      81       1.000000         CONSTANT CONC.      1
      20       1      33      82       1.000000         CONSTANT CONC.      1
      21       1      33      83       1.000000         CONSTANT CONC.      1
      22       1      33      84       1.000000         CONSTANT CONC.      1
      23       1      33      85       1.000000         CONSTANT CONC.      1
      24       1      33      86       1.000000         CONSTANT CONC.      1
      25       1      33      87       1.000000         CONSTANT CONC.      1
      26       1      33      88       1.000000         CONSTANT CONC.      1
      27       1      33      89       1.000000         CONSTANT CONC.      1
      28       1      33      90       1.000000         CONSTANT CONC.      1
      29       1      33      91       1.000000         CONSTANT CONC.      1
      30       1      33      92       1.000000         CONSTANT CONC.      1
      31       1      33      93       1.000000         CONSTANT CONC.      1
      32       1      33      94       1.000000         CONSTANT CONC.      1
      33       1      33      95       1.000000         CONSTANT CONC.      1
      34       1      33      96       1.000000         CONSTANT CONC.      1
      35       1      33      97       1.000000         CONSTANT CONC.      1
      36       1      33      98       1.000000         CONSTANT CONC.      1
      37       1      33      99       1.000000         CONSTANT CONC.      1
      38       1      33     100       1.000000         CONSTANT CONC.      1
      39       1      33     101       1.000000         CONSTANT CONC.      1
      40       1      33     102       1.000000         CONSTANT CONC.      1
      41       1      33     103       1.000000         CONSTANT CONC.      1
      42       1      33     104       1.000000         CONSTANT CONC.      1
      43       1      33     105       1.000000         CONSTANT CONC.      1
      44       1      33     106       1.000000         CONSTANT CONC.      1
      45       1      33     107       1.000000         CONSTANT CONC.      1
      46       1      33     108       1.000000         CONSTANT CONC.      1
      47       1      33     109       1.000000         CONSTANT CONC.      1
      48       1      33     110       1.000000         CONSTANT CONC.      1
      49       1      33     111       1.000000         CONSTANT CONC.      1
      50       1      33     112       1.000000         CONSTANT CONC.      1
      51       1      33     113       1.000000         CONSTANT CONC.      1
      52       1      33     114       1.000000         CONSTANT CONC.      1
      53       1      33     115       1.000000         CONSTANT CONC.      1
      54       1      33     116       1.000000         CONSTANT CONC.      1
      55       1      33     117       1.000000         CONSTANT CONC.      1
      56       1      33     118       1.000000         CONSTANT CONC.      1
      57       1      33     119       1.000000         CONSTANT CONC.      1
      58       1      33     120       1.000000         CONSTANT CONC.      1
      59       1      34      63       1.000000         CONSTANT CONC.      1
      60       1      34      64       1.000000         CONSTANT CONC.      1
      61       1      34      65       1.000000         CONSTANT CONC.      1
      62       1      34      66       1.000000         CONSTANT CONC.      1
      63       1      34      67       1.000000         CONSTANT CONC.      1
      64       1      34      68       1.000000         CONSTANT CONC.      1
      65       1      34      69       1.000000         CONSTANT CONC.      1
      66       1      34      70       1.000000         CONSTANT CONC.      1
      67       1      34      71       1.000000         CONSTANT CONC.      1
      68       1      34      72       1.000000         CONSTANT CONC.      1
      69       1      34      73       1.000000         CONSTANT CONC.      1
      70       1      34      74       1.000000         CONSTANT CONC.      1
      71       1      34      75       1.000000         CONSTANT CONC.      1
      72       1      34      76       1.000000         CONSTANT CONC.      1
      73       1      34      77       1.000000         CONSTANT CONC.      1
      74       1      34      78       1.000000         CONSTANT CONC.      1
      75       1      34      79       1.000000         CONSTANT CONC.      1
      76       1      34      80       1.000000         CONSTANT CONC.      1
      77       1      34      81       1.000000         CONSTANT CONC.      1
      78       1      34      82       1.000000         CONSTANT CONC.      1
      79       1      34      83       1.000000         CONSTANT CONC.      1
      80       1      34      84       1.000000         CONSTANT CONC.      1
      81       1      34      85       1.000000         CONSTANT CONC.      1
      82       1      34      86       1.000000         CONSTANT CONC.      1
      83       1      34      87       1.000000         CONSTANT CONC.      1
      84       1      34      88       1.000000         CONSTANT CONC.      1
      85       1      34      89       1.000000         CONSTANT CONC.      1
      86       1      34      90       1.000000         CONSTANT CONC.      1
      87       1      34      91       1.000000         CONSTANT CONC.      1
      88       1      34      92       1.000000         CONSTANT CONC.      1
      89       1      34      93       1.000000         CONSTANT CONC.      1
      90       1      34      94       1.000000         CONSTANT CONC.      1
      91       1      34      95       1.000000         CONSTANT CONC.      1
      92       1      34      96       1.000000         CONSTANT CONC.      1
      93       1      34      97       1.000000         CONSTANT CONC.      1
      94       1      34      98       1.000000         CONSTANT CONC.      1
      95       1      34      99       1.000000         CONSTANT CONC.      1
      96       1      34     100       1.000000         CONSTANT CONC.      1
      97       1      34     101       1.000000         CONSTANT CONC.      1
      98       1      34     102       1.000000         CONSTANT CONC.      1
      99       1      34     103       1.000000         CONSTANT CONC.      1
     100       1      34     104       1.000000         CONSTANT CONC.      1
     101       1      34     105       1.000000         CONSTANT CONC.      1
     102       1      34     106       1.000000         CONSTANT CONC.      1
     103       1      34     107       1.000000         CONSTANT CONC.      1
     104       1      34     108       1.000000         CONSTANT CONC.      1
     105       1      34     109       1.000000         CONSTANT CONC.      1
     106       1      34     110       1.000000         CONSTANT CONC.      1
     107       1      34     111       1.000000         CONSTANT CONC.      1
     108       1      34     112       1.000000         CONSTANT CONC.      1
     109       1      34     113       1.000000         CONSTANT CONC.      1
     110       1      34     114       1.000000         CONSTANT CONC.      1
     111       1      34     115       1.000000         CONSTANT CONC.      1
     112       1      34     116       1.000000         CONSTANT CONC.      1
     113       1      34     117       1.000000         CONSTANT CONC.      1
     114       1      34     118       1.000000         CONSTANT CONC.      1
     115       1      34     119       1.000000         CONSTANT CONC.      1
     116       1      34     120       1.000000         CONSTANT CONC.      1
     117       1      35      63       1.000000         CONSTANT CONC.      1
     118       1      35      64       1.000000         CONSTANT CONC.      1
     119       1      35      65       1.000000         CONSTANT CONC.      1
     120       1      35      66       1.000000         CONSTANT CONC.      1
     121       1      35      67       1.000000         CONSTANT CONC.      1
     122       1      35      68       1.000000         CONSTANT CONC.      1
     123       1      35      69       1.000000         CONSTANT CONC.      1
     124       1      35      70       1.000000         CONSTANT CONC.      1
     125       1      35      71       1.000000         CONSTANT CONC.      1
     126       1      35      72       1.000000         CONSTANT CONC.      1
     127       1      35      73       1.000000         CONSTANT CONC.      1
     128       1      35      74       1.000000         CONSTANT CONC.      1
     129       1      35      75       1.000000         CONSTANT CONC.      1
     130       1      35      76       1.000000         CONSTANT CONC.      1
     131       1      35      77       1.000000         CONSTANT CONC.      1
     132       1      35      78       1.000000         CONSTANT CONC.      1
     133       1      35      79       1.000000         CONSTANT CONC.      1
     134       1      35      80       1.000000         CONSTANT CONC.      1
     135       1      35      81       1.000000         CONSTANT CONC.      1
     136       1      35      82       1.000000         CONSTANT CONC.      1
     137       1      35      83       1.000000         CONSTANT CONC.      1
     138       1      35      84       1.000000         CONSTANT CONC.      1
     139       1      35      85       1.000000         CONSTANT CONC.      1
     140       1      35      86       1.000000         CONSTANT CONC.      1
     141       1      35      87       1.000000         CONSTANT CONC.      1
     142       1      35      88       1.000000         CONSTANT CONC.      1
     143       1      35      89       1.000000         CONSTANT CONC.      1
     144       1      35      90       1.000000         CONSTANT CONC.      1
     145       1      35      91       1.000000         CONSTANT CONC.      1
     146       1      35      92       1.000000         CONSTANT CONC.      1
     147       1      35      93       1.000000         CONSTANT CONC.      1
     148       1      35      94       1.000000         CONSTANT CONC.      1
     149       1      35      95       1.000000         CONSTANT CONC.      1
     150       1      35      96       1.000000         CONSTANT CONC.      1
     151       1      35      97       1.000000         CONSTANT CONC.      1
     152       1      35      98       1.000000         CONSTANT CONC.      1
     153       1      35      99       1.000000         CONSTANT CONC.      1
     154       1      35     100       1.000000         CONSTANT CONC.      1
     155       1      35     101       1.000000         CONSTANT CONC.      1
     156       1      35     102       1.000000         CONSTANT CONC.      1
     157       1      35     103       1.000000         CONSTANT CONC.      1
     158       1      35     104       1.000000         CONSTANT CONC.      1
     159       1      35     105       1.000000         CONSTANT CONC.      1
     160       1      35     106       1.000000         CONSTANT CONC.      1
     161       1      35     107       1.000000         CONSTANT CONC.      1
     162       1      35     108       1.000000         CONSTANT CONC.      1
     163       1      35     109       1.000000         CONSTANT CONC.      1
     164       1      35     110       1.000000         CONSTANT CONC.      1
     165       1      35     111       1.000000         CONSTANT CONC.      1
     166       1      35     112       1.000000         CONSTANT CONC.      1
     167       1      35     113       1.000000         CONSTANT CONC.      1
     168       1      35     114       1.000000         CONSTANT CONC.      1
     169       1      35     115       1.000000         CONSTANT CONC.      1
     170       1      35     116       1.000000         CONSTANT CONC.      1
     171       1      35     117       1.000000         CONSTANT CONC.      1
     172       1      35     118       1.000000         CONSTANT CONC.      1
     173       1      35     119       1.000000         CONSTANT CONC.      1
     174       1      35     120       1.000000         CONSTANT CONC.      1
     175       1      36      63       1.000000         CONSTANT CONC.      1
     176       1      36      64       1.000000         CONSTANT CONC.      1
     177       1      36      65       1.000000         CONSTANT CONC.      1
     178       1      36      66       1.000000         CONSTANT CONC.      1
     179       1      36      67       1.000000         CONSTANT CONC.      1
     180       1      36      68       1.000000         CONSTANT CONC.      1
     181       1      36      69       1.000000         CONSTANT CONC.      1
     182       1      36      70       1.000000         CONSTANT CONC.      1
     183       1      36      71       1.000000         CONSTANT CONC.      1
     184       1      36      72       1.000000         CONSTANT CONC.      1
     185       1      36      73       1.000000         CONSTANT CONC.      1
     186       1      36      74       1.000000         CONSTANT CONC.      1
     187       1      36      75       1.000000         CONSTANT CONC.      1
     188       1      36      76       1.000000         CONSTANT CONC.      1
     189       1      36      77       1.000000         CONSTANT CONC.      1
     190       1      36      78       1.000000         CONSTANT CONC.      1
     191       1      36      79       1.000000         CONSTANT CONC.      1
     192       1      36      80       1.000000         CONSTANT CONC.      1
     193       1      36      81       1.000000         CONSTANT CONC.      1
     194       1      36      82       1.000000         CONSTANT CONC.      1
     195       1      36      83       1.000000         CONSTANT CONC.      1
     196       1      36      84       1.000000         CONSTANT CONC.      1
     197       1      36      85       1.000000         CONSTANT CONC.      1
     198       1      36      86       1.000000         CONSTANT CONC.      1
     199       1      36      87       1.000000         CONSTANT CONC.      1
     200       1      36      88       1.000000         CONSTANT CONC.      1
     201       1      36      89       1.000000         CONSTANT CONC.      1
     202       1      36      90       1.000000         CONSTANT CONC.      1
     203       1      36      91       1.000000         CONSTANT CONC.      1
     204       1      36      92       1.000000         CONSTANT CONC.      1
     205       1      36      93       1.000000         CONSTANT CONC.      1
     206       1      36      94       1.000000         CONSTANT CONC.      1
     207       1      36      95       1.000000         CONSTANT CONC.      1
     208       1      36      96       1.000000         CONSTANT CONC.      1
     209       1      36      97       1.000000         CONSTANT CONC.      1
     210       1      36      98       1.000000         CONSTANT CONC.      1
     211       1      36      99       1.000000         CONSTANT CONC.      1
     212       1      36     100       1.000000         CONSTANT CONC.      1
     213       1      36     101       1.000000         CONSTANT CONC.      1
     214       1      36     102       1.000000         CONSTANT CONC.      1
     215       1      36     103       1.000000         CONSTANT CONC.      1
     216       1      36     104       1.000000         CONSTANT CONC.      1
     217       1      36     105       1.000000         CONSTANT CONC.      1
     218       1      36     106       1.000000         CONSTANT CONC.      1
     219       1      36     107       1.000000         CONSTANT CONC.      1
     220       1      36     108       1.000000         CONSTANT CONC.      1
     221       1      36     109       1.000000         CONSTANT CONC.      1
     222       1      36     110       1.000000         CONSTANT CONC.      1
     223       1      36     111       1.000000         CONSTANT CONC.      1
     224       1      36     112       1.000000         CONSTANT CONC.      1
     225       1      36     113       1.000000         CONSTANT CONC.      1
     226       1      36     114       1.000000         CONSTANT CONC.      1
     227       1      36     115       1.000000         CONSTANT CONC.      1
     228       1      36     116       1.000000         CONSTANT CONC.      1
     229       1      36     117       1.000000         CONSTANT CONC.      1
     230       1      36     118       1.000000         CONSTANT CONC.      1
     231       1      36     119       1.000000         CONSTANT CONC.      1
     232       1      36     120       1.000000         CONSTANT CONC.      1
     233       1      37      63       1.000000         CONSTANT CONC.      1
     234       1      37      64       1.000000         CONSTANT CONC.      1
     235       1      37      65       1.000000         CONSTANT CONC.      1
     236       1      37      66       1.000000         CONSTANT CONC.      1
     237       1      37      67       1.000000         CONSTANT CONC.      1
     238       1      37      68       1.000000         CONSTANT CONC.      1
     239       1      37      69       1.000000         CONSTANT CONC.      1
     240       1      37      70       1.000000         CONSTANT CONC.      1
     241       1      37      71       1.000000         CONSTANT CONC.      1
     242       1      37      72       1.000000         CONSTANT CONC.      1
     243       1      37      73       1.000000         CONSTANT CONC.      1
     244       1      37      74       1.000000         CONSTANT CONC.      1
     245       1      37      75       1.000000         CONSTANT CONC.      1
     246       1      37      76       1.000000         CONSTANT CONC.      1
     247       1      37      77       1.000000         CONSTANT CONC.      1
     248       1      37      78       1.000000         CONSTANT CONC.      1
     249       1      37      79       1.000000         CONSTANT CONC.      1
     250       1      37      80       1.000000         CONSTANT CONC.      1
     251       1      37      81       1.000000         CONSTANT CONC.      1
     252       1      37      82       1.000000         CONSTANT CONC.      1
     253       1      37      83       1.000000         CONSTANT CONC.      1
     254       1      37      84       1.000000         CONSTANT CONC.      1
     255       1      37      85       1.000000         CONSTANT CONC.      1
     256       1      37      86       1.000000         CONSTANT CONC.      1
     257       1      37      87       1.000000         CONSTANT CONC.      1
     258       1      37      88       1.000000         CONSTANT CONC.      1
     259       1      37      89       1.000000         CONSTANT CONC.      1
     260       1      37      90       1.000000         CONSTANT CONC.      1
     261       1      37      91       1.000000         CONSTANT CONC.      1
     262       1      37      92       1.000000         CONSTANT CONC.      1
     263       1      37      93       1.000000         CONSTANT CONC.      1
     264       1      37      94       1.000000         CONSTANT CONC.      1
     265       1      37      95       1.000000         CONSTANT CONC.      1
     266       1      37      96       1.000000         CONSTANT CONC.      1
     267       1      37      97       1.000000         CONSTANT CONC.      1
     268       1      37      98       1.000000         CONSTANT CONC.      1
     269       1      37      99       1.000000         CONSTANT CONC.      1
     270       1      37     100       1.000000         CONSTANT CONC.      1
     271       1      37     101       1.000000         CONSTANT CONC.      1
     272       1      37     102       1.000000         CONSTANT CONC.      1
     273       1      37     103       1.000000         CONSTANT CONC.      1
     274       1      37     104       1.000000         CONSTANT CONC.      1
     275       1      37     105       1.000000         CONSTANT CONC.      1
     276       1      37     106       1.000000         CONSTANT CONC.      1
     277       1      37     107       1.000000         CONSTANT CONC.      1
     278       1      37     108       1.000000         CONSTANT CONC.      1
     279       1      37     109       1.000000         CONSTANT CONC.      1
     280       1      37     110       1.000000         CONSTANT CONC.      1
     281       1      37     111       1.000000         CONSTANT CONC.      1
     282       1      37     112       1.000000         CONSTANT CONC.      1
     283       1      37     113       1.000000         CONSTANT CONC.      1
     284       1      37     114       1.000000         CONSTANT CONC.      1
     285       1      37     115       1.000000         CONSTANT CONC.      1
     286       1      37     116       1.000000         CONSTANT CONC.      1
     287       1      37     117       1.000000         CONSTANT CONC.      1
     288       1      37     118       1.000000         CONSTANT CONC.      1
     289       1      37     119       1.000000         CONSTANT CONC.      1
     290       1      37     120       1.000000         CONSTANT CONC.      1
     291       1      38      63       1.000000         CONSTANT CONC.      1
     292       1      38      64       1.000000         CONSTANT CONC.      1
     293       1      38      65       1.000000         CONSTANT CONC.      1
     294       1      38      66       1.000000         CONSTANT CONC.      1
     295       1      38      67       1.000000         CONSTANT CONC.      1
     296       1      38      68       1.000000         CONSTANT CONC.      1
     297       1      38      69       1.000000         CONSTANT CONC.      1
     298       1      38      70       1.000000         CONSTANT CONC.      1
     299       1      38      71       1.000000         CONSTANT CONC.      1
     300       1      38      72       1.000000         CONSTANT CONC.      1
     301       1      38      73       1.000000         CONSTANT CONC.      1
     302       1      38      74       1.000000         CONSTANT CONC.      1
     303       1      38      75       1.000000         CONSTANT CONC.      1
     304       1      38      76       1.000000         CONSTANT CONC.      1
     305       1      38      77       1.000000         CONSTANT CONC.      1
     306       1      38      78       1.000000         CONSTANT CONC.      1
     307       1      38      79       1.000000         CONSTANT CONC.      1
     308       1      38      80       1.000000         CONSTANT CONC.      1
     309       1      38      81       1.000000         CONSTANT CONC.      1
     310       1      38      82       1.000000         CONSTANT CONC.      1
     311       1      38      83       1.000000         CONSTANT CONC.      1
     312       1      38      84       1.000000         CONSTANT CONC.      1
     313       1      38      85       1.000000         CONSTANT CONC.      1
     314       1      38      86       1.000000         CONSTANT CONC.      1
     315       1      38      87       1.000000         CONSTANT CONC.      1
     316       1      38      88       1.000000         CONSTANT CONC.      1
     317       1      38      89       1.000000         CONSTANT CONC.      1
     318       1      38      90       1.000000         CONSTANT CONC.      1
     319       1      38      91       1.000000         CONSTANT CONC.      1
     320       1      38      92       1.000000         CONSTANT CONC.      1
     321       1      38      93       1.000000         CONSTANT CONC.      1
     322       1      38      94       1.000000         CONSTANT CONC.      1
     323       1      38      95       1.000000         CONSTANT CONC.      1
     324       1      38      96       1.000000         CONSTANT CONC.      1
     325       1      38      97       1.000000         CONSTANT CONC.      1
     326       1      38      98       1.000000         CONSTANT CONC.      1
     327       1      38      99       1.000000         CONSTANT CONC.      1
     328       1      38     100       1.000000         CONSTANT CONC.      1
     329       1      38     101       1.000000         CONSTANT CONC.      1
     330       1      38     102       1.000000         CONSTANT CONC.      1
     331       1      38     103       1.000000         CONSTANT CONC.      1
     332       1      38     104       1.000000         CONSTANT CONC.      1
     333       1      38     105       1.000000         CONSTANT CONC.      1
     334       1      38     106       1.000000         CONSTANT CONC.      1
     335       1      38     107       1.000000         CONSTANT CONC.      1
     336       1      38     108       1.000000         CONSTANT CONC.      1
     337       1      38     109       1.000000         CONSTANT CONC.      1
     338       1      38     110       1.000000         CONSTANT CONC.      1
     339       1      38     111       1.000000         CONSTANT CONC.      1
     340       1      38     112       1.000000         CONSTANT CONC.      1
     341       1      38     113       1.000000         CONSTANT CONC.      1
     342       1      38     114       1.000000         CONSTANT CONC.      1
     343       1      38     115       1.000000         CONSTANT CONC.      1
     344       1      38     116       1.000000         CONSTANT CONC.      1
     345       1      38     117       1.000000         CONSTANT CONC.      1
     346       1      38     118       1.000000         CONSTANT CONC.      1
     347       1      38     119       1.000000         CONSTANT CONC.      1
     348       1      38     120       1.000000         CONSTANT CONC.      1
     349       1      39      63       1.000000         CONSTANT CONC.      1
     350       1      39      64       1.000000         CONSTANT CONC.      1
     351       1      39      65       1.000000         CONSTANT CONC.      1
     352       1      39      66       1.000000         CONSTANT CONC.      1
     353       1      39      67       1.000000         CONSTANT CONC.      1
     354       1      39      68       1.000000         CONSTANT CONC.      1
     355       1      39      69       1.000000         CONSTANT CONC.      1
     356       1      39      70       1.000000         CONSTANT CONC.      1
     357       1      39      71       1.000000         CONSTANT CONC.      1
     358       1      39      72       1.000000         CONSTANT CONC.      1
     359       1      39      73       1.000000         CONSTANT CONC.      1
     360       1      39      74       1.000000         CONSTANT CONC.      1
     361       1      39      75       1.000000         CONSTANT CONC.      1
     362       1      39      76       1.000000         CONSTANT CONC.      1
     363       1      39      77       1.000000         CONSTANT CONC.      1
     364       1      39      78       1.000000         CONSTANT CONC.      1
     365       1      39      79       1.000000         CONSTANT CONC.      1
     366       1      39      80       1.000000         CONSTANT CONC.      1
     367       1      39      81       1.000000         CONSTANT CONC.      1
     368       1      39      82       1.000000         CONSTANT CONC.      1
     369       1      39      83       1.000000         CONSTANT CONC.      1
     370       1      39      84       1.000000         CONSTANT CONC.      1
     371       1      39      85       1.000000         CONSTANT CONC.      1
     372       1      39      86       1.000000         CONSTANT CONC.      1
     373       1      39      87       1.000000         CONSTANT CONC.      1
     374       1      39      88       1.000000         CONSTANT CONC.      1
     375       1      39      89       1.000000         CONSTANT CONC.      1
     376       1      39      90       1.000000         CONSTANT CONC.      1
     377       1      39      91       1.000000         CONSTANT CONC.      1
     378       1      39      92       1.000000         CONSTANT CONC.      1
     379       1      39      93       1.000000         CONSTANT CONC.      1
     380       1      39      94       1.000000         CONSTANT CONC.      1
     381       1      39      95       1.000000         CONSTANT CONC.      1
     382       1      39      96       1.000000         CONSTANT CONC.      1
     383       1      39      97       1.000000         CONSTANT CONC.      1
     384       1      39      98       1.000000         CONSTANT CONC.      1
     385       1      39      99       1.000000         CONSTANT CONC.      1
     386       1      39     100       1.000000         CONSTANT CONC.      1
     387       1      39     101       1.000000         CONSTANT CONC.      1
     388       1      39     102       1.000000         CONSTANT CONC.      1
     389       1      39     103       1.000000         CONSTANT CONC.      1
     390       1      39     104       1.000000         CONSTANT CONC.      1
     391       1      39     105       1.000000         CONSTANT CONC.      1
     392       1      39     106       1.000000         CONSTANT CONC.      1
     393       1      39     107       1.000000         CONSTANT CONC.      1
     394       1      39     108       1.000000         CONSTANT CONC.      1
     395       1      39     109       1.000000         CONSTANT CONC.      1
     396       1      39     110       1.000000         CONSTANT CONC.      1
     397       1      39     111       1.000000         CONSTANT CONC.      1
     398       1      39     112       1.000000         CONSTANT CONC.      1
     399       1      39     113       1.000000         CONSTANT CONC.      1
     400       1      39     114       1.000000         CONSTANT CONC.      1
     401       1      39     115       1.000000         CONSTANT CONC.      1
     402       1      39     116       1.000000         CONSTANT CONC.      1
     403       1      39     117       1.000000         CONSTANT CONC.      1
     404       1      39     118       1.000000         CONSTANT CONC.      1
     405       1      39     119       1.000000         CONSTANT CONC.      1
     406       1      39     120       1.000000         CONSTANT CONC.      1
     407       1      40      63       1.000000         CONSTANT CONC.      1
     408       1      40      64       1.000000         CONSTANT CONC.      1
     409       1      40      65       1.000000         CONSTANT CONC.      1
     410       1      40      66       1.000000         CONSTANT CONC.      1
     411       1      40      67       1.000000         CONSTANT CONC.      1
     412       1      40      68       1.000000         CONSTANT CONC.      1
     413       1      40      69       1.000000         CONSTANT CONC.      1
     414       1      40      70       1.000000         CONSTANT CONC.      1
     415       1      40      71       1.000000         CONSTANT CONC.      1
     416       1      40      72       1.000000         CONSTANT CONC.      1
     417       1      40      73       1.000000         CONSTANT CONC.      1
     418       1      40      74       1.000000         CONSTANT CONC.      1
     419       1      40      75       1.000000         CONSTANT CONC.      1
     420       1      40      76       1.000000         CONSTANT CONC.      1
     421       1      40      77       1.000000         CONSTANT CONC.      1
     422       1      40      78       1.000000         CONSTANT CONC.      1
     423       1      40      79       1.000000         CONSTANT CONC.      1
     424       1      40      80       1.000000         CONSTANT CONC.      1
     425       1      40      81       1.000000         CONSTANT CONC.      1
     426       1      40      82       1.000000         CONSTANT CONC.      1
     427       1      40      83       1.000000         CONSTANT CONC.      1
     428       1      40      84       1.000000         CONSTANT CONC.      1
     429       1      40      85       1.000000         CONSTANT CONC.      1
     430       1      40      86       1.000000         CONSTANT CONC.      1
     431       1      40      87       1.000000         CONSTANT CONC.      1
     432       1      40      88       1.000000         CONSTANT CONC.      1
     433       1      40      89       1.000000         CONSTANT CONC.      1
     434       1      40      90       1.000000         CONSTANT CONC.      1
     435       1      40      91       1.000000         CONSTANT CONC.      1
     436       1      40      92       1.000000         CONSTANT CONC.      1
     437       1      40      93       1.000000         CONSTANT CONC.      1
     438       1      40      94       1.000000         CONSTANT CONC.      1
     439       1      40      95       1.000000         CONSTANT CONC.      1
     440       1      40      96       1.000000         CONSTANT CONC.      1
     441       1      40      97       1.000000         CONSTANT CONC.      1
     442       1      40      98       1.000000         CONSTANT CONC.      1
     443       1      40      99       1.000000         CONSTANT CONC.      1
     444       1      40     100       1.000000         CONSTANT CONC.      1
     445       1      40     101       1.000000         CONSTANT CONC.      1
     446       1      40     102       1.000000         CONSTANT CONC.      1
     447       1      40     103       1.000000         CONSTANT CONC.      1
     448       1      40     104       1.000000         CONSTANT CONC.      1
     449       1      40     105       1.000000         CONSTANT CONC.      1
     450       1      40     106       1.000000         CONSTANT CONC.      1
     451       1      40     107       1.000000         CONSTANT CONC.      1
     452       1      40     108       1.000000         CONSTANT CONC.      1
     453       1      40     109       1.000000         CONSTANT CONC.      1
     454       1      40     110       1.000000         CONSTANT CONC.      1
     455       1      40     111       1.000000         CONSTANT CONC.      1
     456       1      40     112       1.000000         CONSTANT CONC.      1
     457       1      40     113       1.000000         CONSTANT CONC.      1
     458       1      40     114       1.000000         CONSTANT CONC.      1
     459       1      40     115       1.000000         CONSTANT CONC.      1
     460       1      40     116       1.000000         CONSTANT CONC.      1
     461       1      40     117       1.000000         CONSTANT CONC.      1
     462       1      40     118       1.000000         CONSTANT CONC.      1
     463       1      40     119       1.000000         CONSTANT CONC.      1
     464       1      40     120       1.000000         CONSTANT CONC.      1
     465       1      41      63       1.000000         CONSTANT CONC.      1
     466       1      41      64       1.000000         CONSTANT CONC.      1
     467       1      41      65       1.000000         CONSTANT CONC.      1
     468       1      41      66       1.000000         CONSTANT CONC.      1
     469       1      41      67       1.000000         CONSTANT CONC.      1
     470       1      41      68       1.000000         CONSTANT CONC.      1
     471       1      41      69       1.000000         CONSTANT CONC.      1
     472       1      41      70       1.000000         CONSTANT CONC.      1
     473       1      41      71       1.000000         CONSTANT CONC.      1
     474       1      41      72       1.000000         CONSTANT CONC.      1
     475       1      41      73       1.000000         CONSTANT CONC.      1
     476       1      41      74       1.000000         CONSTANT CONC.      1
     477       1      41      75       1.000000         CONSTANT CONC.      1
     478       1      41      76       1.000000         CONSTANT CONC.      1
     479       1      41      77       1.000000         CONSTANT CONC.      1
     480       1      41      78       1.000000         CONSTANT CONC.      1
     481       1      41      79       1.000000         CONSTANT CONC.      1
     482       1      41      80       1.000000         CONSTANT CONC.      1
     483       1      41      81       1.000000         CONSTANT CONC.      1
     484       1      41      82       1.000000         CONSTANT CONC.      1
     485       1      41      83       1.000000         CONSTANT CONC.      1
     486       1      41      84       1.000000         CONSTANT CONC.      1
     487       1      41      85       1.000000         CONSTANT CONC.      1
     488       1      41      86       1.000000         CONSTANT CONC.      1
     489       1      41      87       1.000000         CONSTANT CONC.      1
     490       1      41      88       1.000000         CONSTANT CONC.      1
     491       1      41      89       1.000000         CONSTANT CONC.      1
     492       1      41      90       1.000000         CONSTANT CONC.      1
     493       1      41      91       1.000000         CONSTANT CONC.      1
     494       1      41      92       1.000000         CONSTANT CONC.      1
     495       1      41      93       1.000000         CONSTANT CONC.      1
     496       1      41      94       1.000000         CONSTANT CONC.      1
     497       1      41      95       1.000000         CONSTANT CONC.      1
     498       1      41      96       1.000000         CONSTANT CONC.      1
     499       1      41      97       1.000000         CONSTANT CONC.      1
     500       1      41      98       1.000000         CONSTANT CONC.      1
     501       1      41      99       1.000000         CONSTANT CONC.      1
     502       1      41     100       1.000000         CONSTANT CONC.      1
     503       1      41     101       1.000000         CONSTANT CONC.      1
     504       1      41     102       1.000000         CONSTANT CONC.      1
     505       1      41     103       1.000000         CONSTANT CONC.      1
     506       1      41     104       1.000000         CONSTANT CONC.      1
     507       1      41     105       1.000000         CONSTANT CONC.      1
     508       1      41     106       1.000000         CONSTANT CONC.      1
     509       1      41     107       1.000000         CONSTANT CONC.      1
     510       1      41     108       1.000000         CONSTANT CONC.      1
     511       1      41     109       1.000000         CONSTANT CONC.      1
     512       1      41     110       1.000000         CONSTANT CONC.      1
     513       1      41     111       1.000000         CONSTANT CONC.      1
     514       1      41     112       1.000000         CONSTANT CONC.      1
     515       1      41     113       1.000000         CONSTANT CONC.      1
     516       1      41     114       1.000000         CONSTANT CONC.      1
     517       1      41     115       1.000000         CONSTANT CONC.      1
     518       1      41     116       1.000000         CONSTANT CONC.      1
     519       1      41     117       1.000000         CONSTANT CONC.      1
     520       1      41     118       1.000000         CONSTANT CONC.      1
     521       1      41     119       1.000000         CONSTANT CONC.      1
     522       1      41     120       1.000000         CONSTANT CONC.      1
     523       1      42      63       1.000000         CONSTANT CONC.      1
     524       1      42      64       1.000000         CONSTANT CONC.      1
     525       1      42      65       1.000000         CONSTANT CONC.      1
     526       1      42      66       1.000000         CONSTANT CONC.      1
     527       1      42      67       1.000000         CONSTANT CONC.      1
     528       1      42      68       1.000000         CONSTANT CONC.      1
     529       1      42      69       1.000000         CONSTANT CONC.      1
     530       1      42      70       1.000000         CONSTANT CONC.      1
     531       1      42      71       1.000000         CONSTANT CONC.      1
     532       1      42      72       1.000000         CONSTANT CONC.      1
     533       1      42      73       1.000000         CONSTANT CONC.      1
     534       1      42      74       1.000000         CONSTANT CONC.      1
     535       1      42      75       1.000000         CONSTANT CONC.      1
     536       1      42      76       1.000000         CONSTANT CONC.      1
     537       1      42      77       1.000000         CONSTANT CONC.      1
     538       1      42      78       1.000000         CONSTANT CONC.      1
     539       1      42      79       1.000000         CONSTANT CONC.      1
     540       1      42      80       1.000000         CONSTANT CONC.      1
     541       1      42      81       1.000000         CONSTANT CONC.      1
     542       1      42      82       1.000000         CONSTANT CONC.      1
     543       1      42      83       1.000000         CONSTANT CONC.      1
     544       1      42      84       1.000000         CONSTANT CONC.      1
     545       1      42      85       1.000000         CONSTANT CONC.      1
     546       1      42      86       1.000000         CONSTANT CONC.      1
     547       1      42      87       1.000000         CONSTANT CONC.      1
     548       1      42      88       1.000000         CONSTANT CONC.      1
     549       1      42      89       1.000000         CONSTANT CONC.      1
     550       1      42      90       1.000000         CONSTANT CONC.      1
     551       1      42      91       1.000000         CONSTANT CONC.      1
     552       1      42      92       1.000000         CONSTANT CONC.      1
     553       1      42      93       1.000000         CONSTANT CONC.      1
     554       1      42      94       1.000000         CONSTANT CONC.      1
     555       1      42      95       1.000000         CONSTANT CONC.      1
     556       1      42      96       1.000000         CONSTANT CONC.      1
     557       1      42      97       1.000000         CONSTANT CONC.      1
     558       1      42      98       1.000000         CONSTANT CONC.      1
     559       1      42      99       1.000000         CONSTANT CONC.      1
     560       1      42     100       1.000000         CONSTANT CONC.      1
     561       1      42     101       1.000000         CONSTANT CONC.      1
     562       1      42     102       1.000000         CONSTANT CONC.      1
     563       1      42     103       1.000000         CONSTANT CONC.      1
     564       1      42     104       1.000000         CONSTANT CONC.      1
     565       1      42     105       1.000000         CONSTANT CONC.      1
     566       1      42     106       1.000000         CONSTANT CONC.      1
     567       1      42     107       1.000000         CONSTANT CONC.      1
     568       1      42     108       1.000000         CONSTANT CONC.      1
     569       1      42     109       1.000000         CONSTANT CONC.      1
     570       1      42     110       1.000000         CONSTANT CONC.      1
     571       1      42     111       1.000000         CONSTANT CONC.      1
     572       1      42     112       1.000000         CONSTANT CONC.      1
     573       1      42     113       1.000000         CONSTANT CONC.      1
     574       1      42     114       1.000000         CONSTANT CONC.      1
     575       1      42     115       1.000000         CONSTANT CONC.      1
     576       1      42     116       1.000000         CONSTANT CONC.      1
     577       1      42     117       1.000000         CONSTANT CONC.      1
     578       1      42     118       1.000000         CONSTANT CONC.      1
     579       1      42     119       1.000000         CONSTANT CONC.      1
     580       1      42     120       1.000000         CONSTANT CONC.      1
     581       1      43      63       1.000000         CONSTANT CONC.      1
     582       1      43      64       1.000000         CONSTANT CONC.      1
     583       1      43      65       1.000000         CONSTANT CONC.      1
     584       1      43      66       1.000000         CONSTANT CONC.      1
     585       1      43      67       1.000000         CONSTANT CONC.      1
     586       1      43      68       1.000000         CONSTANT CONC.      1
     587       1      43      69       1.000000         CONSTANT CONC.      1
     588       1      43      70       1.000000         CONSTANT CONC.      1
     589       1      43      71       1.000000         CONSTANT CONC.      1
     590       1      43      72       1.000000         CONSTANT CONC.      1
     591       1      43      73       1.000000         CONSTANT CONC.      1
     592       1      43      74       1.000000         CONSTANT CONC.      1
     593       1      43      75       1.000000         CONSTANT CONC.      1
     594       1      43      76       1.000000         CONSTANT CONC.      1
     595       1      43      77       1.000000         CONSTANT CONC.      1
     596       1      43      78       1.000000         CONSTANT CONC.      1
     597       1      43      79       1.000000         CONSTANT CONC.      1
     598       1      43      80       1.000000         CONSTANT CONC.      1
     599       1      43      81       1.000000         CONSTANT CONC.      1
     600       1      43      82       1.000000         CONSTANT CONC.      1
     601       1      43      83       1.000000         CONSTANT CONC.      1
     602       1      43      84       1.000000         CONSTANT CONC.      1
     603       1      43      85       1.000000         CONSTANT CONC.      1
     604       1      43      86       1.000000         CONSTANT CONC.      1
     605       1      43      87       1.000000         CONSTANT CONC.      1
     606       1      43      88       1.000000         CONSTANT CONC.      1
     607       1      43      89       1.000000         CONSTANT CONC.      1
     608       1      43      90       1.000000         CONSTANT CONC.      1
     609       1      43      91       1.000000         CONSTANT CONC.      1
     610       1      43      92       1.000000         CONSTANT CONC.      1
     611       1      43      93       1.000000         CONSTANT CONC.      1
     612       1      43      94       1.000000         CONSTANT CONC.      1
     613       1      43      95       1.000000         CONSTANT CONC.      1
     614       1      43      96       1.000000         CONSTANT CONC.      1
     615       1      43      97       1.000000         CONSTANT CONC.      1
     616       1      43      98       1.000000         CONSTANT CONC.      1
     617       1      43      99       1.000000         CONSTANT CONC.      1
     618       1      43     100       1.000000         CONSTANT CONC.      1
     619       1      43     101       1.000000         CONSTANT CONC.      1
     620       1      43     102       1.000000         CONSTANT CONC.      1
     621       1      43     103       1.000000         CONSTANT CONC.      1
     622       1      43     104       1.000000         CONSTANT CONC.      1
     623       1      43     105       1.000000         CONSTANT CONC.      1
     624       1      43     106       1.000000         CONSTANT CONC.      1
     625       1      43     107       1.000000         CONSTANT CONC.      1
     626       1      43     108       1.000000         CONSTANT CONC.      1
     627       1      43     109       1.000000         CONSTANT CONC.      1
     628       1      43     110       1.000000         CONSTANT CONC.      1
     629       1      43     111       1.000000         CONSTANT CONC.      1
     630       1      43     112       1.000000         CONSTANT CONC.      1
     631       1      43     113       1.000000         CONSTANT CONC.      1
     632       1      43     114       1.000000         CONSTANT CONC.      1
     633       1      43     115       1.000000         CONSTANT CONC.      1
     634       1      43     116       1.000000         CONSTANT CONC.      1
     635       1      43     117       1.000000         CONSTANT CONC.      1
     636       1      43     118       1.000000         CONSTANT CONC.      1
     637       1      43     119       1.000000         CONSTANT CONC.      1
     638       1      43     120       1.000000         CONSTANT CONC.      1
     639       1      44      63       1.000000         CONSTANT CONC.      1
     640       1      44      64       1.000000         CONSTANT CONC.      1
     641       1      44      65       1.000000         CONSTANT CONC.      1
     642       1      44      66       1.000000         CONSTANT CONC.      1
     643       1      44      67       1.000000         CONSTANT CONC.      1
     644       1      44      68       1.000000         CONSTANT CONC.      1
     645       1      44      69       1.000000         CONSTANT CONC.      1
     646       1      44      70       1.000000         CONSTANT CONC.      1
     647       1      44      71       1.000000         CONSTANT CONC.      1
     648       1      44      72       1.000000         CONSTANT CONC.      1
     649       1      44      73       1.000000         CONSTANT CONC.      1
     650       1      44      74       1.000000         CONSTANT CONC.      1
     651       1      44      75       1.000000         CONSTANT CONC.      1
     652       1      44      76       1.000000         CONSTANT CONC.      1
     653       1      44      77       1.000000         CONSTANT CONC.      1
     654       1      44      78       1.000000         CONSTANT CONC.      1
     655       1      44      79       1.000000         CONSTANT CONC.      1
     656       1      44      80       1.000000         CONSTANT CONC.      1
     657       1      44      81       1.000000         CONSTANT CONC.      1
     658       1      44      82       1.000000         CONSTANT CONC.      1
     659       1      44      83       1.000000         CONSTANT CONC.      1
     660       1      44      84       1.000000         CONSTANT CONC.      1
     661       1      44      85       1.000000         CONSTANT CONC.      1
     662       1      44      86       1.000000         CONSTANT CONC.      1
     663       1      44      87       1.000000         CONSTANT CONC.      1
     664       1      44      88       1.000000         CONSTANT CONC.      1
     665       1      44      89       1.000000         CONSTANT CONC.      1
     666       1      44      90       1.000000         CONSTANT CONC.      1
     667       1      44      91       1.000000         CONSTANT CONC.      1
     668       1      44      92       1.000000         CONSTANT CONC.      1
     669       1      44      93       1.000000         CONSTANT CONC.      1
     670       1      44      94       1.000000         CONSTANT CONC.      1
     671       1      44      95       1.000000         CONSTANT CONC.      1
     672       1      44      96       1.000000         CONSTANT CONC.      1
     673       1      44      97       1.000000         CONSTANT CONC.      1
     674       1      44      98       1.000000         CONSTANT CONC.      1
     675       1      44      99       1.000000         CONSTANT CONC.      1
     676       1      44     100       1.000000         CONSTANT CONC.      1
     677       1      44     101       1.000000         CONSTANT CONC.      1
     678       1      44     102       1.000000         CONSTANT CONC.      1
     679       1      44     103       1.000000         CONSTANT CONC.      1
     680       1      44     104       1.000000         CONSTANT CONC.      1
     681       1      44     105       1.000000         CONSTANT CONC.      1
     682       1      44     106       1.000000         CONSTANT CONC.      1
     683       1      44     107       1.000000         CONSTANT CONC.      1
     684       1      44     108       1.000000         CONSTANT CONC.      1
     685       1      44     109       1.000000         CONSTANT CONC.      1
     686       1      44     110       1.000000         CONSTANT CONC.      1
     687       1      44     111       1.000000         CONSTANT CONC.      1
     688       1      44     112       1.000000         CONSTANT CONC.      1
     689       1      44     113       1.000000         CONSTANT CONC.      1
     690       1      44     114       1.000000         CONSTANT CONC.      1
     691       1      44     115       1.000000         CONSTANT CONC.      1
     692       1      44     116       1.000000         CONSTANT CONC.      1
     693       1      44     117       1.000000         CONSTANT CONC.      1
     694       1      44     118       1.000000         CONSTANT CONC.      1
     695       1      44     119       1.000000         CONSTANT CONC.      1
     696       1      44     120       1.000000         CONSTANT CONC.      1
     697       1      45      63       1.000000         CONSTANT CONC.      1
     698       1      45      64       1.000000         CONSTANT CONC.      1
     699       1      45      65       1.000000         CONSTANT CONC.      1
     700       1      45      66       1.000000         CONSTANT CONC.      1
     701       1      45      67       1.000000         CONSTANT CONC.      1
     702       1      45      68       1.000000         CONSTANT CONC.      1
     703       1      45      69       1.000000         CONSTANT CONC.      1
     704       1      45      70       1.000000         CONSTANT CONC.      1
     705       1      45      71       1.000000         CONSTANT CONC.      1
     706       1      45      72       1.000000         CONSTANT CONC.      1
     707       1      45      73       1.000000         CONSTANT CONC.      1
     708       1      45      74       1.000000         CONSTANT CONC.      1
     709       1      45      75       1.000000         CONSTANT CONC.      1
     710       1      45      76       1.000000         CONSTANT CONC.      1
     711       1      45      77       1.000000         CONSTANT CONC.      1
     712       1      45      78       1.000000         CONSTANT CONC.      1
     713       1      45      79       1.000000         CONSTANT CONC.      1
     714       1      45      80       1.000000         CONSTANT CONC.      1
     715       1      45      81       1.000000         CONSTANT CONC.      1
     716       1      45      82       1.000000         CONSTANT CONC.      1
     717       1      45      83       1.000000         CONSTANT CONC.      1
     718       1      45      84       1.000000         CONSTANT CONC.      1
     719       1      45      85       1.000000         CONSTANT CONC.      1
     720       1      45      86       1.000000         CONSTANT CONC.      1
     721       1      45      87       1.000000         CONSTANT CONC.      1
     722       1      45      88       1.000000         CONSTANT CONC.      1
     723       1      45      89       1.000000         CONSTANT CONC.      1
     724       1      45      90       1.000000         CONSTANT CONC.      1
     725       1      45      91       1.000000         CONSTANT CONC.      1
     726       1      45      92       1.000000         CONSTANT CONC.      1
     727       1      45      93       1.000000         CONSTANT CONC.      1
     728       1      45      94       1.000000         CONSTANT CONC.      1
     729       1      45      95       1.000000         CONSTANT CONC.      1
     730       1      45      96       1.000000         CONSTANT CONC.      1
     731       1      45      97       1.000000         CONSTANT CONC.      1
     732       1      45      98       1.000000         CONSTANT CONC.      1
     733       1      45      99       1.000000         CONSTANT CONC.      1
     734       1      45     100       1.000000         CONSTANT CONC.      1
     735       1      45     101       1.000000         CONSTANT CONC.      1
     736       1      45     102       1.000000         CONSTANT CONC.      1
     737       1      45     103       1.000000         CONSTANT CONC.      1
     738       1      45     104       1.000000         CONSTANT CONC.      1
     739       1      45     105       1.000000         CONSTANT CONC.      1
     740       1      45     106       1.000000         CONSTANT CONC.      1
     741       1      45     107       1.000000         CONSTANT CONC.      1
     742       1      45     108       1.000000         CONSTANT CONC.      1
     743       1      45     109       1.000000         CONSTANT CONC.      1
     744       1      45     110       1.000000         CONSTANT CONC.      1
     745       1      45     111       1.000000         CONSTANT CONC.      1
     746       1      45     112       1.000000         CONSTANT CONC.      1
     747       1      45     113       1.000000         CONSTANT CONC.      1
     748       1      45     114       1.000000         CONSTANT CONC.      1
     749       1      45     115       1.000000         CONSTANT CONC.      1
     750       1      45     116       1.000000         CONSTANT CONC.      1
     751       1      45     117       1.000000         CONSTANT CONC.      1
     752       1      45     118       1.000000         CONSTANT CONC.      1
     753       1      45     119       1.000000         CONSTANT CONC.      1
     754       1      45     120       1.000000         CONSTANT CONC.      1
     755       1      46      63       1.000000         CONSTANT CONC.      1
     756       1      46      64       1.000000         CONSTANT CONC.      1
     757       1      46      65       1.000000         CONSTANT CONC.      1
     758       1      46      66       1.000000         CONSTANT CONC.      1
     759       1      46      67       1.000000         CONSTANT CONC.      1
     760       1      46      68       1.000000         CONSTANT CONC.      1
     761       1      46      69       1.000000         CONSTANT CONC.      1
     762       1      46      70       1.000000         CONSTANT CONC.      1
     763       1      46      71       1.000000         CONSTANT CONC.      1
     764       1      46      72       1.000000         CONSTANT CONC.      1
     765       1      46      73       1.000000         CONSTANT CONC.      1
     766       1      46      74       1.000000         CONSTANT CONC.      1
     767       1      46      75       1.000000         CONSTANT CONC.      1
     768       1      46      76       1.000000         CONSTANT CONC.      1
     769       1      46      77       1.000000         CONSTANT CONC.      1
     770       1      46      78       1.000000         CONSTANT CONC.      1
     771       1      46      79       1.000000         CONSTANT CONC.      1
     772       1      46      80       1.000000         CONSTANT CONC.      1
     773       1      46      81       1.000000         CONSTANT CONC.      1
     774       1      46      82       1.000000         CONSTANT CONC.      1
     775       1      46      83       1.000000         CONSTANT CONC.      1
     776       1      46      84       1.000000         CONSTANT CONC.      1
     777       1      46      85       1.000000         CONSTANT CONC.      1
     778       1      46      86       1.000000         CONSTANT CONC.      1
     779       1      46      87       1.000000         CONSTANT CONC.      1
     780       1      46      88       1.000000         CONSTANT CONC.      1
     781       1      46      89       1.000000         CONSTANT CONC.      1
     782       1      46      90       1.000000         CONSTANT CONC.      1
     783       1      46      91       1.000000         CONSTANT CONC.      1
     784       1      46      92       1.000000         CONSTANT CONC.      1
     785       1      46      93       1.000000         CONSTANT CONC.      1
     786       1      46      94       1.000000         CONSTANT CONC.      1
     787       1      46      95       1.000000         CONSTANT CONC.      1
     788       1      46      96       1.000000         CONSTANT CONC.      1
     789       1      46      97       1.000000         CONSTANT CONC.      1
     790       1      46      98       1.000000         CONSTANT CONC.      1
     791       1      46      99       1.000000         CONSTANT CONC.      1
     792       1      46     100       1.000000         CONSTANT CONC.      1
     793       1      46     101       1.000000         CONSTANT CONC.      1
     794       1      46     102       1.000000         CONSTANT CONC.      1
     795       1      46     103       1.000000         CONSTANT CONC.      1
     796       1      46     104       1.000000         CONSTANT CONC.      1
     797       1      46     105       1.000000         CONSTANT CONC.      1
     798       1      46     106       1.000000         CONSTANT CONC.      1
     799       1      46     107       1.000000         CONSTANT CONC.      1
     800       1      46     108       1.000000         CONSTANT CONC.      1
     801       1      46     109       1.000000         CONSTANT CONC.      1
     802       1      46     110       1.000000         CONSTANT CONC.      1
     803       1      46     111       1.000000         CONSTANT CONC.      1
     804       1      46     112       1.000000         CONSTANT CONC.      1
     805       1      46     113       1.000000         CONSTANT CONC.      1
     806       1      46     114       1.000000         CONSTANT CONC.      1
     807       1      46     115       1.000000         CONSTANT CONC.      1
     808       1      46     116       1.000000         CONSTANT CONC.      1
     809       1      46     117       1.000000         CONSTANT CONC.      1
     810       1      46     118       1.000000         CONSTANT CONC.      1
     811       1      46     119       1.000000         CONSTANT CONC.      1
     812       1      46     120       1.000000         CONSTANT CONC.      1
     813       1      47      63       1.000000         CONSTANT CONC.      1
     814       1      47      64       1.000000         CONSTANT CONC.      1
     815       1      47      65       1.000000         CONSTANT CONC.      1
     816       1      47      66       1.000000         CONSTANT CONC.      1
     817       1      47      67       1.000000         CONSTANT CONC.      1
     818       1      47      68       1.000000         CONSTANT CONC.      1
     819       1      47      69       1.000000         CONSTANT CONC.      1
     820       1      47      70       1.000000         CONSTANT CONC.      1
     821       1      47      71       1.000000         CONSTANT CONC.      1
     822       1      47      72       1.000000         CONSTANT CONC.      1
     823       1      47      73       1.000000         CONSTANT CONC.      1
     824       1      47      74       1.000000         CONSTANT CONC.      1
     825       1      47      75       1.000000         CONSTANT CONC.      1
     826       1      47      76       1.000000         CONSTANT CONC.      1
     827       1      47      77       1.000000         CONSTANT CONC.      1
     828       1      47      78       1.000000         CONSTANT CONC.      1
     829       1      47      79       1.000000         CONSTANT CONC.      1
     830       1      47      80       1.000000         CONSTANT CONC.      1
     831       1      47      81       1.000000         CONSTANT CONC.      1
     832       1      47      82       1.000000         CONSTANT CONC.      1
     833       1      47      83       1.000000         CONSTANT CONC.      1
     834       1      47      84       1.000000         CONSTANT CONC.      1
     835       1      47      85       1.000000         CONSTANT CONC.      1
     836       1      47      86       1.000000         CONSTANT CONC.      1
     837       1      47      87       1.000000         CONSTANT CONC.      1
     838       1      47      88       1.000000         CONSTANT CONC.      1
     839       1      47      89       1.000000         CONSTANT CONC.      1
     840       1      47      90       1.000000         CONSTANT CONC.      1
     841       1      47      91       1.000000         CONSTANT CONC.      1
     842       1      47      92       1.000000         CONSTANT CONC.      1
     843       1      47      93       1.000000         CONSTANT CONC.      1
     844       1      47      94       1.000000         CONSTANT CONC.      1
     845       1      47      95       1.000000         CONSTANT CONC.      1
     846       1      47      96       1.000000         CONSTANT CONC.      1
     847       1      47      97       1.000000         CONSTANT CONC.      1
     848       1      47      98       1.000000         CONSTANT CONC.      1
     849       1      47      99       1.000000         CONSTANT CONC.      1
     850       1      47     100       1.000000         CONSTANT CONC.      1
     851       1      47     101       1.000000         CONSTANT CONC.      1
     852       1      47     102       1.000000         CONSTANT CONC.      1
     853       1      47     103       1.000000         CONSTANT CONC.      1
     854       1      47     104       1.000000         CONSTANT CONC.      1
     855       1      47     105       1.000000         CONSTANT CONC.      1
     856       1      47     106       1.000000         CONSTANT CONC.      1
     857       1      47     107       1.000000         CONSTANT CONC.      1
     858       1      47     108       1.000000         CONSTANT CONC.      1
     859       1      47     109       1.000000         CONSTANT CONC.      1
     860       1      47     110       1.000000         CONSTANT CONC.      1
     861       1      47     111       1.000000         CONSTANT CONC.      1
     862       1      47     112       1.000000         CONSTANT CONC.      1
     863       1      47     113       1.000000         CONSTANT CONC.      1
     864       1      47     114       1.000000         CONSTANT CONC.      1
     865       1      47     115       1.000000         CONSTANT CONC.      1
     866       1      47     116       1.000000         CONSTANT CONC.      1
     867       1      47     117       1.000000         CONSTANT CONC.      1
     868       1      47     118       1.000000         CONSTANT CONC.      1
     869       1      47     119       1.000000         CONSTANT CONC.      1
     870       1      47     120       1.000000         CONSTANT CONC.      1
     871       1      48      63       1.000000         CONSTANT CONC.      1
     872       1      48      64       1.000000         CONSTANT CONC.      1
     873       1      48      65       1.000000         CONSTANT CONC.      1
     874       1      48      66       1.000000         CONSTANT CONC.      1
     875       1      48      67       1.000000         CONSTANT CONC.      1
     876       1      48      68       1.000000         CONSTANT CONC.      1
     877       1      48      69       1.000000         CONSTANT CONC.      1
     878       1      48      70       1.000000         CONSTANT CONC.      1
     879       1      48      71       1.000000         CONSTANT CONC.      1
     880       1      48      72       1.000000         CONSTANT CONC.      1
     881       1      48      73       1.000000         CONSTANT CONC.      1
     882       1      48      74       1.000000         CONSTANT CONC.      1
     883       1      48      75       1.000000         CONSTANT CONC.      1
     884       1      48      76       1.000000         CONSTANT CONC.      1
     885       1      48      77       1.000000         CONSTANT CONC.      1
     886       1      48      78       1.000000         CONSTANT CONC.      1
     887       1      48      79       1.000000         CONSTANT CONC.      1
     888       1      48      80       1.000000         CONSTANT CONC.      1
     889       1      48      81       1.000000         CONSTANT CONC.      1
     890       1      48      82       1.000000         CONSTANT CONC.      1
     891       1      48      83       1.000000         CONSTANT CONC.      1
     892       1      48      84       1.000000         CONSTANT CONC.      1
     893       1      48      85       1.000000         CONSTANT CONC.      1
     894       1      48      86       1.000000         CONSTANT CONC.      1
     895       1      48      87       1.000000         CONSTANT CONC.      1
     896       1      48      88       1.000000         CONSTANT CONC.      1
     897       1      48      89       1.000000         CONSTANT CONC.      1
     898       1      48      90       1.000000         CONSTANT CONC.      1
[...]
          AT ACTIVE CELL K =   1,   I=  60,   J=  88;  RESET AS INACTIVE

 WARNING: SATURATED THICKNESS =   0.0000     NOT ALLOWED IN TRANSPORT MODEL
          AT ACTIVE CELL K =   1,   I=  60,   J=  89;  RESET AS INACTIVE

 WARNING: SATURATED THICKNESS =   0.0000     NOT ALLOWED IN TRANSPORT MODEL
          AT ACTIVE CELL K =   1,   I=  60,   J=  90;  RESET AS INACTIVE

 WARNING: SATURATED THICKNESS =   0.0000     NOT ALLOWED IN TRANSPORT MODEL
          AT ACTIVE CELL K =   1,   I=  60,   J=  91;  RESET AS INACTIVE

 WARNING: SATURATED THICKNESS =   0.0000     NOT ALLOWED IN TRANSPORT MODEL
          AT ACTIVE CELL K =   1,   I=  60,   J=  92;  RESET AS INACTIVE

 WARNING: SATURATED THICKNESS =   0.0000     NOT ALLOWED IN TRANSPORT MODEL
          AT ACTIVE CELL K =   1,   I=  60,   J=  93;  RESET AS INACTIVE

 WARNING: SATURATED THICKNESS =   0.0000     NOT ALLOWED IN TRANSPORT MODEL
          AT ACTIVE CELL K =   1,   I=  60,   J=  94;  RESET AS INACTIVE

 WARNING: SATURATED THICKNESS =   0.0000     NOT ALLOWED IN TRANSPORT MODEL
          AT ACTIVE CELL K =   1,   I=  60,   J=  95;  RESET AS INACTIVE

 WARNING: SATURATED THICKNESS =   0.0000     NOT ALLOWED IN TRANSPORT MODEL
          AT ACTIVE CELL K =   1,   I=  60,   J=  96;  RESET AS INACTIVE

 WARNING: SATURATED THICKNESS =   0.0000     NOT ALLOWED IN TRANSPORT MODEL
          AT ACTIVE CELL K =   1,   I=  60,   J=  97;  RESET AS INACTIVE

 WARNING: SATURATED THICKNESS =   0.0000     NOT ALLOWED IN TRANSPORT MODEL
          AT ACTIVE CELL K =   1,   I=  60,   J=  98;  RESET AS INACTIVE

 WARNING: SATURATED THICKNESS =   0.0000     NOT ALLOWED IN TRANSPORT MODEL
          AT ACTIVE CELL K =   1,   I=  60,   J=  99;  RESET AS INACTIVE

 WARNING: SATURATED THICKNESS =   0.0000     NOT ALLOWED IN TRANSPORT MODEL
          AT ACTIVE CELL K =   1,   I=  60,   J= 100;  RESET AS INACTIVE

 WARNING: SATURATED THICKNESS =   0.0000     NOT ALLOWED IN TRANSPORT MODEL
          AT ACTIVE CELL K =   1,   I=  60,   J= 101;  RESET AS INACTIVE

 WARNING: SATURATED THICKNESS =   0.0000     NOT ALLOWED IN TRANSPORT MODEL
          AT ACTIVE CELL K =   1,   I=  60,   J= 102;  RESET AS INACTIVE

 WARNING: SATURATED THICKNESS =   0.0000     NOT ALLOWED IN TRANSPORT MODEL
          AT ACTIVE CELL K =   1,   I=  60,   J= 103;  RESET AS INACTIVE

 WARNING: SATURATED THICKNESS =   0.0000     NOT ALLOWED IN TRANSPORT MODEL
          AT ACTIVE CELL K =   1,   I=  60,   J= 104;  RESET AS INACTIVE

 WARNING: SATURATED THICKNESS =   0.0000     NOT ALLOWED IN TRANSPORT MODEL
          AT ACTIVE CELL K =   1,   I=  60,   J= 105;  RESET AS INACTIVE

 WARNING: SATURATED THICKNESS =   0.0000     NOT ALLOWED IN TRANSPORT MODEL
          AT ACTIVE CELL K =   1,   I=  60,   J= 106;  RESET AS INACTIVE

 WARNING: SATURATED THICKNESS =   0.0000     NOT ALLOWED IN TRANSPORT MODEL
          AT ACTIVE CELL K =   1,   I=  60,   J= 107;  RESET AS INACTIVE

 WARNING: SATURATED THICKNESS =   0.0000     NOT ALLOWED IN TRANSPORT MODEL
          AT ACTIVE CELL K =   1,   I=  60,   J= 108;  RESET AS INACTIVE

 WARNING: SATURATED THICKNESS =   0.0000     NOT ALLOWED IN TRANSPORT MODEL
          AT ACTIVE CELL K =   1,   I=  60,   J= 109;  RESET AS INACTIVE

 WARNING: SATURATED THICKNESS =   0.0000     NOT ALLOWED IN TRANSPORT MODEL
          AT ACTIVE CELL K =   1,   I=  60,   J= 110;  RESET AS INACTIVE

 WARNING: SATURATED THICKNESS =   0.0000     NOT ALLOWED IN TRANSPORT MODEL
          AT ACTIVE CELL K =   1,   I=  60,   J= 111;  RESET AS INACTIVE

 WARNING: SATURATED THICKNESS =   0.0000     NOT ALLOWED IN TRANSPORT MODEL
          AT ACTIVE CELL K =   1,   I=  60,   J= 112;  RESET AS INACTIVE

 WARNING: SATURATED THICKNESS =   0.0000     NOT ALLOWED IN TRANSPORT MODEL
          AT ACTIVE CELL K =   1,   I=  60,   J= 113;  RESET AS INACTIVE

 WARNING: SATURATED THICKNESS =   0.0000     NOT ALLOWED IN TRANSPORT MODEL
          AT ACTIVE CELL K =   1,   I=  60,   J= 114;  RESET AS INACTIVE

 WARNING: SATURATED THICKNESS =   0.0000     NOT ALLOWED IN TRANSPORT MODEL
          AT ACTIVE CELL K =   1,   I=  60,   J= 115;  RESET AS INACTIVE

 WARNING: SATURATED THICKNESS =   0.0000     NOT ALLOWED IN TRANSPORT MODEL
          AT ACTIVE CELL K =   1,   I=  60,   J= 116;  RESET AS INACTIVE

 WARNING: SATURATED THICKNESS =   0.0000     NOT ALLOWED IN TRANSPORT MODEL
          AT ACTIVE CELL K =   1,   I=  60,   J= 117;  RESET AS INACTIVE

 WARNING: SATURATED THICKNESS =   0.0000     NOT ALLOWED IN TRANSPORT MODEL
          AT ACTIVE CELL K =   1,   I=  60,   J= 118;  RESET AS INACTIVE

 WARNING: SATURATED THICKNESS =   0.0000     NOT ALLOWED IN TRANSPORT MODEL
          AT ACTIVE CELL K =   1,   I=  60,   J= 119;  RESET AS INACTIVE

 WARNING: SATURATED THICKNESS =   0.0000     NOT ALLOWED IN TRANSPORT MODEL
          AT ACTIVE CELL K =   1,   I=  60,   J= 120;  RESET AS INACTIVE

 WARNING: SATURATED THICKNESS =   0.0000     NOT ALLOWED IN TRANSPORT MODEL
          AT ACTIVE CELL K =   1,   I=  60,   J= 121;  RESET AS INACTIVE

 WARNING: SATURATED THICKNESS =   0.0000     NOT ALLOWED IN TRANSPORT MODEL
          AT ACTIVE CELL K =   1,   I=  61,   J=  62;  RESET AS INACTIVE

 WARNING: SATURATED THICKNESS =   0.0000     NOT ALLOWED IN TRANSPORT MODEL
          AT ACTIVE CELL K =   1,   I=  61,   J=  63;  RESET AS INACTIVE

 WARNING: SATURATED THICKNESS =   0.0000     NOT ALLOWED IN TRANSPORT MODEL
          AT ACTIVE CELL K =   1,   I=  61,   J=  64;  RESET AS INACTIVE

 WARNING: SATURATED THICKNESS =   0.0000     NOT ALLOWED IN TRANSPORT MODEL
          AT ACTIVE CELL K =   1,   I=  61,   J=  65;  RESET AS INACTIVE

 WARNING: SATURATED THICKNESS =   0.0000     NOT ALLOWED IN TRANSPORT MODEL
          AT ACTIVE CELL K =   1,   I=  61,   J=  66;  RESET AS INACTIVE

 WARNING: SATURATED THICKNESS =   0.0000     NOT ALLOWED IN TRANSPORT MODEL
          AT ACTIVE CELL K =   1,   I=  61,   J=  67;  RESET AS INACTIVE

 WARNING: SATURATED THICKNESS =   0.0000     NOT ALLOWED IN TRANSPORT MODEL
          AT ACTIVE CELL K =   1,   I=  61,   J=  68;  RESET AS INACTIVE

 WARNING: SATURATED THICKNESS =   0.0000     NOT ALLOWED IN TRANSPORT MODEL
          AT ACTIVE CELL K =   1,   I=  61,   J=  69;  RESET AS INACTIVE

 WARNING: SATURATED THICKNESS =   0.0000     NOT ALLOWED IN TRANSPORT MODEL
          AT ACTIVE CELL K =   1,   I=  61,   J=  70;  RESET AS INACTIVE

 WARNING: SATURATED THICKNESS =   0.0000     NOT ALLOWED IN TRANSPORT MODEL
          AT ACTIVE CELL K =   1,   I=  61,   J=  71;  RESET AS INACTIVE

 WARNING: SATURATED THICKNESS =   0.0000     NOT ALLOWED IN TRANSPORT MODEL
          AT ACTIVE CELL K =   1,   I=  61,   J=  72;  RESET AS INACTIVE

 WARNING: SATURATED THICKNESS =   0.0000     NOT ALLOWED IN TRANSPORT MODEL
          AT ACTIVE CELL K =   1,   I=  61,   J=  73;  RESET AS INACTIVE

 WARNING: SATURATED THICKNESS =   0.0000     NOT ALLOWED IN TRANSPORT MODEL
          AT ACTIVE CELL K =   1,   I=  61,   J=  74;  RESET AS INACTIVE

 WARNING: SATURATED THICKNESS =   0.0000     NOT ALLOWED IN TRANSPORT MODEL
          AT ACTIVE CELL K =   1,   I=  61,   J=  75;  RESET AS INACTIVE

 WARNING: SATURATED THICKNESS =   0.0000     NOT ALLOWED IN TRANSPORT MODEL
          AT ACTIVE CELL K =   1,   I=  61,   J=  76;  RESET AS INACTIVE

 WARNING: SATURATED THICKNESS =   0.0000     NOT ALLOWED IN TRANSPORT MODEL
          AT ACTIVE CELL K =   1,   I=  61,   J=  77;  RESET AS INACTIVE

 WARNING: SATURATED THICKNESS =   0.0000     NOT ALLOWED IN TRANSPORT MODEL
          AT ACTIVE CELL K =   1,   I=  61,   J=  78;  RESET AS INACTIVE

 WARNING: SATURATED THICKNESS =   0.0000     NOT ALLOWED IN TRANSPORT MODEL
          AT ACTIVE CELL K =   1,   I=  61,   J=  79;  RESET AS INACTIVE

 WARNING: SATURATED THICKNESS =   0.0000     NOT ALLOWED IN TRANSPORT MODEL
          AT ACTIVE CELL K =   1,   I=  61,   J=  80;  RESET AS INACTIVE

 WARNING: SATURATED THICKNESS =   0.0000     NOT ALLOWED IN TRANSPORT MODEL
          AT ACTIVE CELL K =   1,   I=  61,   J=  81;  RESET AS INACTIVE

 WARNING: SATURATED THICKNESS =   0.0000     NOT ALLOWED IN TRANSPORT MODEL
          AT ACTIVE CELL K =   1,   I=  61,   J=  82;  RESET AS INACTIVE

 WARNING: SATURATED THICKNESS =   0.0000     NOT ALLOWED IN TRANSPORT MODEL
          AT ACTIVE CELL K =   1,   I=  61,   J=  83;  RESET AS INACTIVE

 WARNING: SATURATED THICKNESS =   0.0000     NOT ALLOWED IN TRANSPORT MODEL
          AT ACTIVE CELL K =   1,   I=  61,   J=  84;  RESET AS INACTIVE

 WARNING: SATURATED THICKNESS =   0.0000     NOT ALLOWED IN TRANSPORT MODEL
          AT ACTIVE CELL K =   1,   I=  61,   J=  85;  RESET AS INACTIVE

 WARNING: SATURATED THICKNESS =   0.0000     NOT ALLOWED IN TRANSPORT MODEL
          AT ACTIVE CELL K =   1,   I=  61,   J=  86;  RESET AS INACTIVE

 WARNING: SATURATED THICKNESS =   0.0000     NOT ALLOWED IN TRANSPORT MODEL
          AT ACTIVE CELL K =   1,   I=  61,   J=  87;  RESET AS INACTIVE

 WARNING: SATURATED THICKNESS =   0.0000     NOT ALLOWED IN TRANSPORT MODEL
          AT ACTIVE CELL K =   1,   I=  61,   J=  88;  RESET AS INACTIVE

 WARNING: SATURATED THICKNESS =   0.0000     NOT ALLOWED IN TRANSPORT MODEL
          AT ACTIVE CELL K =   1,   I=  61,   J=  89;  RESET AS INACTIVE

 WARNING: SATURATED THICKNESS =   0.0000     NOT ALLOWED IN TRANSPORT MODEL
          AT ACTIVE CELL K =   1,   I=  61,   J=  90;  RESET AS INACTIVE

 WARNING: SATURATED THICKNESS =   0.0000     NOT ALLOWED IN TRANSPORT MODEL
          AT ACTIVE CELL K =   1,   I=  61,   J=  91;  RESET AS INACTIVE

 WARNING: SATURATED THICKNESS =   0.0000     NOT ALLOWED IN TRANSPORT MODEL
          AT ACTIVE CELL K =   1,   I=  61,   J=  92;  RESET AS INACTIVE

 WARNING: SATURATED THICKNESS =   0.0000     NOT ALLOWED IN TRANSPORT MODEL
          AT ACTIVE CELL K =   1,   I=  61,   J=  93;  RESET AS INACTIVE

 WARNING: SATURATED THICKNESS =   0.0000     NOT ALLOWED IN TRANSPORT MODEL
          AT ACTIVE CELL K =   1,   I=  61,   J=  94;  RESET AS INACTIVE

 WARNING: SATURATED THICKNESS =   0.0000     NOT ALLOWED IN TRANSPORT MODEL
          AT ACTIVE CELL K =   1,   I=  61,   J=  95;  RESET AS INACTIVE

 WARNING: SATURATED THICKNESS =   0.0000     NOT ALLOWED IN TRANSPORT MODEL
          AT ACTIVE CELL K =   1,   I=  61,   J=  96;  RESET AS INACTIVE

 WARNING: SATURATED THICKNESS =   0.0000     NOT ALLOWED IN TRANSPORT MODEL
          AT ACTIVE CELL K =   1,   I=  61,   J=  97;  RESET AS INACTIVE

 WARNING: SATURATED THICKNESS =   0.0000     NOT ALLOWED IN TRANSPORT MODEL
          AT ACTIVE CELL K =   1,   I=  61,   J=  98;  RESET AS INACTIVE

 WARNING: SATURATED THICKNESS =   0.0000     NOT ALLOWED IN TRANSPORT MODEL
          AT ACTIVE CELL K =   1,   I=  61,   J=  99;  RESET AS INACTIVE

 WARNING: SATURATED THICKNESS =   0.0000     NOT ALLOWED IN TRANSPORT MODEL
          AT ACTIVE CELL K =   1,   I=  61,   J= 100;  RESET AS INACTIVE

 WARNING: SATURATED THICKNESS =   0.0000     NOT ALLOWED IN TRANSPORT MODEL
          AT ACTIVE CELL K =   1,   I=  61,   J= 101;  RESET AS INACTIVE

 WARNING: SATURATED THICKNESS =   0.0000     NOT ALLOWED IN TRANSPORT MODEL
          AT ACTIVE CELL K =   1,   I=  61,   J= 102;  RESET AS INACTIVE

 WARNING: SATURATED THICKNESS =   0.0000     NOT ALLOWED IN TRANSPORT MODEL
          AT ACTIVE CELL K =   1,   I=  61,   J= 103;  RESET AS INACTIVE

 WARNING: SATURATED THICKNESS =   0.0000     NOT ALLOWED IN TRANSPORT MODEL
          AT ACTIVE CELL K =   1,   I=  61,   J= 104;  RESET AS INACTIVE

 WARNING: SATURATED THICKNESS =   0.0000     NOT ALLOWED IN TRANSPORT MODEL
          AT ACTIVE CELL K =   1,   I=  61,   J= 105;  RESET AS INACTIVE

 WARNING: SATURATED THICKNESS =   0.0000     NOT ALLOWED IN TRANSPORT MODEL
          AT ACTIVE CELL K =   1,   I=  61,   J= 106;  RESET AS INACTIVE

 WARNING: SATURATED THICKNESS =   0.0000     NOT ALLOWED IN TRANSPORT MODEL
          AT ACTIVE CELL K =   1,   I=  61,   J= 107;  RESET AS INACTIVE

 WARNING: SATURATED THICKNESS =   0.0000     NOT ALLOWED IN TRANSPORT MODEL
          AT ACTIVE CELL K =   1,   I=  61,   J= 108;  RESET AS INACTIVE

 WARNING: SATURATED THICKNESS =   0.0000     NOT ALLOWED IN TRANSPORT MODEL
          AT ACTIVE CELL K =   1,   I=  61,   J= 109;  RESET AS INACTIVE

 WARNING: SATURATED THICKNESS =   0.0000     NOT ALLOWED IN TRANSPORT MODEL
          AT ACTIVE CELL K =   1,   I=  61,   J= 110;  RESET AS INACTIVE

 WARNING: SATURATED THICKNESS =   0.0000     NOT ALLOWED IN TRANSPORT MODEL
          AT ACTIVE CELL K =   1,   I=  61,   J= 111;  RESET AS INACTIVE

 WARNING: SATURATED THICKNESS =   0.0000     NOT ALLOWED IN TRANSPORT MODEL
          AT ACTIVE CELL K =   1,   I=  61,   J= 112;  RESET AS INACTIVE

 WARNING: SATURATED THICKNESS =   0.0000     NOT ALLOWED IN TRANSPORT MODEL
          AT ACTIVE CELL K =   1,   I=  61,   J= 113;  RESET AS INACTIVE

 WARNING: SATURATED THICKNESS =   0.0000     NOT ALLOWED IN TRANSPORT MODEL
          AT ACTIVE CELL K =   1,   I=  61,   J= 114;  RESET AS INACTIVE

 WARNING: SATURATED THICKNESS =   0.0000     NOT ALLOWED IN TRANSPORT MODEL
          AT ACTIVE CELL K =   1,   I=  61,   J= 115;  RESET AS INACTIVE

 WARNING: SATURATED THICKNESS =   0.0000     NOT ALLOWED IN TRANSPORT MODEL
          AT ACTIVE CELL K =   1,   I=  61,   J= 116;  RESET AS INACTIVE

 WARNING: SATURATED THICKNESS =   0.0000     NOT ALLOWED IN TRANSPORT MODEL
          AT ACTIVE CELL K =   1,   I=  61,   J= 117;  RESET AS INACTIVE

 WARNING: SATURATED THICKNESS =   0.0000     NOT ALLOWED IN TRANSPORT MODEL
          AT ACTIVE CELL K =   1,   I=  61,   J= 118;  RESET AS INACTIVE

 WARNING: SATURATED THICKNESS =   0.0000     NOT ALLOWED IN TRANSPORT MODEL
          AT ACTIVE CELL K =   1,   I=  61,   J= 119;  RESET AS INACTIVE

 WARNING: SATURATED THICKNESS =   0.0000     NOT ALLOWED IN TRANSPORT MODEL
          AT ACTIVE CELL K =   1,   I=  61,   J= 120;  RESET AS INACTIVE

 WARNING: SATURATED THICKNESS =   0.0000     NOT ALLOWED IN TRANSPORT MODEL
          AT ACTIVE CELL K =   1,   I=  61,   J= 121;  RESET AS INACTIVE

 MAXIMUM STEPSIZE DURING WHICH ANY PARTICLE CANNOT MOVE MORE THAN ONE CELL
 =  297.3    (WHEN MIN. R.F.=1)  AT K=   1, I=  46, J= 120

 MAXIMUM STEPSIZE WHICH MEETS STABILITY CRITERION OF THE ADVECTION TERM
 (FOR PURE FINITE-DIFFERENCE OPTION, MIXELM=0) 
 =  193.3    (WHEN MIN. R.F.=1)  AT K=   1, I=  46, J= 120

                    "CNH             " FLOW TERMS FOR TIME STEP  1, STRESS PERIOD  1 READ UNFORMATTED ON UNIT 10
                    --------------------------------------------------------------------------------------------


 TOTAL NUMBER OF POINT SOURCES/SINKS PRESENT IN THE FLOW MODEL =  1930

 MAXIMUM STEPSIZE WHICH MEETS STABILITY CRITERION OF THE SINK & SOURCE TERM
 =  1167.    (WHEN MIN. R.F.=1)  AT K=   3, I=  91, J=   1

 MAXIMUM STEPSIZE WHICH MEETS STABILITY CRITERION OF THE DISPERSION TERM
 =  160.2    (WHEN MIN. R.F.=1)  AT K=   1, I=  33, J= 119


     1 CALLS TO GCG PACKAGE FOR TRANSPORT TIME STEP   1 IN FLOW TIME STEP   1 STRESS PERIOD   1
     3 TOTAL ITERATIONS
     1 CALLS TO GCG PACKAGE FOR TRANSPORT TIME STEP   2 IN FLOW TIME STEP   1 STRESS PERIOD   1
     3 TOTAL ITERATIONS
     1 CALLS TO GCG PACKAGE FOR TRANSPORT TIME STEP   3 IN FLOW TIME STEP   1 STRESS PERIOD   1
     4 TOTAL ITERATIONS
     1 CALLS TO GCG PACKAGE FOR TRANSPORT TIME STEP   4 IN FLOW TIME STEP   1 STRESS PERIOD   1
     4 TOTAL ITERATIONS
     1 CALLS TO GCG PACKAGE FOR TRANSPORT TIME STEP   5 IN FLOW TIME STEP   1 STRESS PERIOD   1
     5 TOTAL ITERATIONS
     1 CALLS TO GCG PACKAGE FOR TRANSPORT TIME STEP   6 IN FLOW TIME STEP   1 STRESS PERIOD   1
     7 TOTAL ITERATIONS
     1 CALLS TO GCG PACKAGE FOR TRANSPORT TIME STEP   7 IN FLOW TIME STEP   1 STRESS PERIOD   1
     9 TOTAL ITERATIONS
     1 CALLS TO GCG PACKAGE FOR TRANSPORT TIME STEP   8 IN FLOW TIME STEP   1 STRESS PERIOD   1
    11 TOTAL ITERATIONS
     1 CALLS TO GCG PACKAGE FOR TRANSPORT TIME STEP   9 IN FLOW TIME STEP   1 STRESS PERIOD   1
     9 TOTAL ITERATIONS
     1 CALLS TO GCG PACKAGE FOR TRANSPORT TIME STEP  10 IN FLOW TIME STEP   1 STRESS PERIOD   1
    12 TOTAL ITERATIONS
     1 CALLS TO GCG PACKAGE FOR TRANSPORT TIME STEP  11 IN FLOW TIME STEP   1 STRESS PERIOD   1
     7 TOTAL ITERATIONS
     1 CALLS TO GCG PACKAGE FOR TRANSPORT TIME STEP  12 IN FLOW TIME STEP   1 STRESS PERIOD   1
     5 TOTAL ITERATIONS
     1 CALLS TO GCG PACKAGE FOR TRANSPORT TIME STEP  13 IN FLOW TIME STEP   1 STRESS PERIOD   1
     2 TOTAL ITERATIONS
     1 CALLS TO GCG PACKAGE FOR TRANSPORT TIME STEP  14 IN FLOW TIME STEP   1 STRESS PERIOD   1
     1 TOTAL ITERATIONS
     1 CALLS TO GCG PACKAGE FOR TRANSPORT TIME STEP  15 IN FLOW TIME STEP   1 STRESS PERIOD   1
     1 TOTAL ITERATIONS
     1 CALLS TO GCG PACKAGE FOR TRANSPORT TIME STEP  16 IN FLOW TIME STEP   1 STRESS PERIOD   1
     1 TOTAL ITERATIONS
     1 CALLS TO GCG PACKAGE FOR TRANSPORT TIME STEP  17 IN FLOW TIME STEP   1 STRESS PERIOD   1
     1 TOTAL ITERATIONS
     1 CALLS TO GCG PACKAGE FOR TRANSPORT TIME STEP  18 IN FLOW TIME STEP   1 STRESS PERIOD   1
     1 TOTAL ITERATIONS
     1 CALLS TO GCG PACKAGE FOR TRANSPORT TIME STEP  19 IN FLOW TIME STEP   1 STRESS PERIOD   1
     1 TOTAL ITERATIONS
     1 CALLS TO GCG PACKAGE FOR TRANSPORT TIME STEP  20 IN FLOW TIME STEP   1 STRESS PERIOD   1
     1 TOTAL ITERATIONS
     1 CALLS TO GCG PACKAGE FOR TRANSPORT TIME STEP  21 IN FLOW TIME STEP   1 STRESS PERIOD   1
     1 TOTAL ITERATIONS
     1 CALLS TO GCG PACKAGE FOR TRANSPORT TIME STEP  22 IN FLOW TIME STEP   1 STRESS PERIOD   1
     1 TOTAL ITERATIONS
     1 CALLS TO GCG PACKAGE FOR TRANSPORT TIME STEP  23 IN FLOW TIME STEP   1 STRESS PERIOD   1
     1 TOTAL ITERATIONS
     1 CALLS TO GCG PACKAGE FOR TRANSPORT TIME STEP  24 IN FLOW TIME STEP   1 STRESS PERIOD   1
     1 TOTAL ITERATIONS
     1 CALLS TO GCG PACKAGE FOR TRANSPORT TIME STEP  25 IN FLOW TIME STEP   1 STRESS PERIOD   1
     1 TOTAL ITERATIONS
  MAXIMUM CONCENTRATION CHANGES FOR EACH ITERATION:
  MAX. CHANGE LAYER,ROW,COL MAX. CHANGE LAYER,ROW,COL MAX. CHANGE LAYER,ROW,COL MAX. CHANGE LAYER,ROW,COL MAX. CHANGE LAYER,ROW,COL
 ------------------------------------------------------------------------------------------------------------------------------------
   0.1371E-05 (  2, 43,173)



 >>>>>>>>>>>>>>>>>>>>>>>>>>>>>>>>>>>>>>>>>>>>>>>>>>>>>>>FOR COMPONENT NO. 01<<<<<<<<<<<<<<<<<<<<<<<<<<<<<<<<<<<<<<<<<<<<<<<<<<<<<<<


                                            -------------------------------------------
                                                      TRANSPORT STEP NO.   25
                                            -------------------------------------------

 TOTAL ELAPSED TIME SINCE BEGINNING OF SIMULATION =  0.1000000E+09D   
 .....................................................................

                     CUMMULATIVE MASS BUDGETS AT END OF TRANSPORT STEP   25, TIME STEP    1, STRESS PERIOD    1
                     ------------------------------------------------------------------------------------------

                                                             IN                           OUT
                                                      ----------------             ----------------
                               CONSTANT CONCENTRATION:   0.4261518E+11              -0.5232072E+10
                                        CONSTANT HEAD:    0.000000                  -0.3735441E+11
                                MASS STORAGE (SOLUTE):    2108.567                  -0.2841619E+08
                            ---------------------------------------------------------------------------
                                              [TOTAL]:   0.4261518E+11 g            -0.4261490E+11 g   

                                                          NET (IN - OUT):    278528.0    
                                                   DISCREPANCY (PERCENT):   0.6535908E-03
  ----- 
 | M T |
 | 3 D | END OF MODEL OUTPUT
  ----- 
